/*--------------------------------*- C++ -*----------------------------------*\
| =========                 |                                                 |
| \\      /  F ield         | OpenFOAM: The Open Source CFD Toolbox           |
|  \\    /   O peration     | Version:  v2012                                 |
|   \\  /    A nd           | Website:  www.openfoam.com                      |
|    \\/     M anipulation  |                                                 |
\*---------------------------------------------------------------------------*/
FoamFile
{
    version     2.0;
    format      ascii;
    class       dictionary;
    location    "system";
    object      fvSchemes;
}
// * * * * * * * * * * * * * * * * * * * * * * * * * * * * * * * * * * * * * //

ddtSchemes
{
    default         steadyState;
}

gradSchemes
{
    default         cellMDLimited Gauss linear 0.5;
    grad(U)	    cellMDLimited Gauss linear 0.5;
}

divSchemes
{
    default         none;
    div(phi,U)      Gauss linearUpwind grad(U);
    turbulence      bounded Gauss upwind;
    div(phi,k)      $turbulence;
    div(phi,omega)  $turbulence;

    div((nuEff*dev2(T(grad(U))))) Gauss linear;


}

laplacianSchemes
{
    default         Gauss linear limited 0.8;
}

interpolationSchemes
{
    default         linear;
}

snGradSchemes
{
    default         limited 0.8;
}

wallDist
{
    method          meshWave;
}


// ************************************************************************* //
