/*--------------------------------*- C++ -*----------------------------------*\
| =========                 |                                                 |
| \\      /  F ield         | OpenFOAM: The Open Source CFD Toolbox           |
|  \\    /   O peration     | Version:  v2012                                 |
|   \\  /    A nd           | Website:  www.openfoam.com                      |
|    \\/     M anipulation  |                                                 |
\*---------------------------------------------------------------------------*/
FoamFile
{
    version     2.0;
    format      ascii;
    class       featureEdgeMesh;
    location    "constant/triSurface";
    object      tornadoSimulatorATMSLMask.eMesh;
}
// * * * * * * * * * * * * * * * * * * * * * * * * * * * * * * * * * * * * * //


// points:

36070
(
(2.41098 2.7 1.32271)
(2.41675 2.7 1.31219)
(4.39408 2.7 2.38579)
(3.38915 2.7 1.87864)
(4.39408 2.7 2.38579)
(2.39934 2.7 1.3437)
(2.40521 2.7 1.33323)
(4.3731 2.7 2.42405)
(3.37263 2.7 1.90814)
(4.3731 2.7 2.42405)
(2.38752 2.7 1.36458)
(2.39348 2.7 1.35417)
(4.35178 2.7 2.46212)
(3.35585 2.7 1.9375)
(4.35178 2.7 2.46212)
(2.37553 2.7 1.38536)
(2.38157 2.7 1.375)
(4.33013 2.7 2.5)
(3.33881 2.7 1.96671)
(4.33013 2.7 2.5)
(2.36334 2.7 1.40604)
(2.36948 2.7 1.39573)
(4.30815 2.7 2.53769)
(3.32152 2.7 1.99577)
(4.30815 2.7 2.53769)
(2.35099 2.7 1.42661)
(2.35721 2.7 1.41636)
(4.28584 2.7 2.57519)
(3.30398 2.7 2.02468)
(4.28584 2.7 2.57519)
(2.33845 2.7 1.44707)
(2.34476 2.7 1.43687)
(4.2632 2.7 2.61249)
(3.28619 2.7 2.05344)
(4.2632 2.7 2.61249)
(2.32573 2.7 1.46743)
(2.33213 2.7 1.45728)
(4.24024 2.7 2.6496)
(3.26814 2.7 2.08204)
(4.24024 2.7 2.6496)
(2.31284 2.7 1.48767)
(2.31933 2.7 1.47757)
(4.21696 2.7 2.6865)
(3.24985 2.7 2.11048)
(4.21696 2.7 2.6865)
(2.29976 2.7 1.50779)
(2.30634 2.7 1.49776)
(4.19335 2.7 2.7232)
(3.23131 2.7 2.13876)
(4.19335 2.7 2.7232)
(2.28652 2.7 1.5278)
(2.29319 2.7 1.51783)
(4.16943 2.7 2.75969)
(3.21252 2.7 2.16687)
(4.16943 2.7 2.75969)
(2.2731 2.7 1.5477)
(2.27985 2.7 1.53778)
(4.14519 2.7 2.79596)
(3.19349 2.7 2.19482)
(4.14519 2.7 2.79596)
(2.25951 2.7 1.56748)
(2.26635 2.7 1.55762)
(4.12063 2.7 2.83203)
(3.17421 2.7 2.22261)
(4.12063 2.7 2.83203)
(2.24574 2.7 1.58713)
(2.25267 2.7 1.57733)
(4.09576 2.7 2.86788)
(3.1547 2.7 2.25022)
(4.09576 2.7 2.86788)
(2.23181 2.7 1.60667)
(2.23882 2.7 1.59693)
(4.07058 2.7 2.90352)
(3.13494 2.7 2.27767)
(4.07058 2.7 2.90352)
(2.2177 2.7 1.62609)
(2.2248 2.7 1.61641)
(4.04509 2.7 2.93893)
(3.11495 2.7 2.30494)
(4.04509 2.7 2.93893)
(2.20343 2.7 1.64538)
(2.21061 2.7 1.63576)
(4.01928 2.7 2.97411)
(3.09471 2.7 2.33203)
(4.01928 2.7 2.97411)
(2.18898 2.7 1.66454)
(2.19625 2.7 1.65499)
(3.99318 2.7 3.00908)
(3.07424 2.7 2.35895)
(3.99318 2.7 3.00908)
(2.17438 2.7 1.68358)
(2.18172 2.7 1.67409)
(3.96677 2.7 3.04381)
(3.05354 2.7 2.38569)
(3.96677 2.7 3.04381)
(2.1596 2.7 1.70249)
(2.16703 2.7 1.69307)
(3.94005 2.7 3.07831)
(3.03261 2.7 2.41224)
(3.94005 2.7 3.07831)
(2.14466 2.7 1.72127)
(2.15217 2.7 1.71192)
(3.91304 2.7 3.11257)
(3.01144 2.7 2.43862)
(3.91304 2.7 3.11257)
(2.12956 2.7 1.73992)
(2.13715 2.7 1.73063)
(3.88573 2.7 3.1466)
(2.99004 2.7 2.4648)
(3.88573 2.7 3.1466)
(2.11429 2.7 1.75844)
(2.12197 2.7 1.74921)
(3.85812 2.7 3.18039)
(2.96842 2.7 2.4908)
(3.85812 2.7 3.18039)
(2.09887 2.7 1.77682)
(2.10662 2.7 1.76767)
(3.83022 2.7 3.21394)
(2.94657 2.7 2.51661)
(3.83022 2.7 3.21394)
(2.08328 2.7 1.79507)
(2.09112 2.7 1.78598)
(3.80203 2.7 3.24724)
(2.9245 2.7 2.54223)
(3.80203 2.7 3.24724)
(2.06754 2.7 1.81318)
(2.07545 2.7 1.80416)
(3.77355 2.7 3.2803)
(2.9022 2.7 2.56765)
(3.77355 2.7 3.2803)
(2.05164 2.7 1.83116)
(2.05963 2.7 1.82221)
(3.74478 2.7 3.3131)
(2.87969 2.7 2.59288)
(3.74478 2.7 3.3131)
(2.03558 2.7 1.84899)
(2.04365 2.7 1.84011)
(3.71572 2.7 3.34565)
(2.85695 2.7 2.61791)
(3.71572 2.7 3.34565)
(2.01937 2.7 1.86668)
(2.02751 2.7 1.85787)
(3.68639 2.7 3.37795)
(2.834 2.7 2.64274)
(3.68639 2.7 3.37795)
(2.003 2.7 1.88424)
(2.01122 2.7 1.8755)
(3.65677 2.7 3.40999)
(2.81083 2.7 2.66737)
(3.65677 2.7 3.40999)
(1.98648 2.7 1.90164)
(1.99478 2.7 1.89298)
(3.62687 2.7 3.44177)
(2.78744 2.7 2.6918)
(3.62687 2.7 3.44177)
(1.96981 2.7 1.91891)
(1.97819 2.7 1.91031)
(3.5967 2.7 3.47329)
(2.76384 2.7 2.71602)
(3.5967 2.7 3.47329)
(1.95299 2.7 1.93602)
(1.96144 2.7 1.9275)
(3.56625 2.7 3.50455)
(2.74004 2.7 2.74004)
(3.56625 2.7 3.50455)
(1.93602 2.7 1.95299)
(1.94454 2.7 1.94454)
(3.53553 2.7 3.53553)
(2.71602 2.7 2.76384)
(3.53553 2.7 3.53553)
(1.91891 2.7 1.96981)
(1.9275 2.7 1.96144)
(3.50455 2.7 3.56625)
(2.6918 2.7 2.78744)
(3.50455 2.7 3.56625)
(1.90164 2.7 1.98648)
(1.91031 2.7 1.97819)
(3.47329 2.7 3.5967)
(2.66737 2.7 2.81083)
(3.47329 2.7 3.5967)
(1.88424 2.7 2.003)
(1.89298 2.7 1.99478)
(3.44177 2.7 3.62687)
(2.64274 2.7 2.834)
(3.44177 2.7 3.62687)
(1.86668 2.7 2.01937)
(1.8755 2.7 2.01122)
(3.40999 2.7 3.65677)
(2.61791 2.7 2.85695)
(3.40999 2.7 3.65677)
(1.84899 2.7 2.03558)
(1.85787 2.7 2.02751)
(3.37795 2.7 3.68639)
(2.59288 2.7 2.87969)
(3.37795 2.7 3.68639)
(1.83116 2.7 2.05164)
(1.84011 2.7 2.04365)
(3.34565 2.7 3.71572)
(2.56765 2.7 2.9022)
(3.34565 2.7 3.71572)
(1.81318 2.7 2.06754)
(1.82221 2.7 2.05963)
(3.3131 2.7 3.74478)
(2.54223 2.7 2.9245)
(3.3131 2.7 3.74478)
(1.79507 2.7 2.08328)
(1.80416 2.7 2.07545)
(3.2803 2.7 3.77355)
(2.51661 2.7 2.94657)
(3.2803 2.7 3.77355)
(1.77682 2.7 2.09887)
(1.78598 2.7 2.09112)
(3.24724 2.7 3.80203)
(2.4908 2.7 2.96842)
(3.24724 2.7 3.80203)
(1.75844 2.7 2.11429)
(1.76767 2.7 2.10662)
(3.21394 2.7 3.83022)
(2.4648 2.7 2.99004)
(3.21394 2.7 3.83022)
(1.73992 2.7 2.12956)
(1.74921 2.7 2.12197)
(3.18039 2.7 3.85812)
(2.43862 2.7 3.01144)
(3.18039 2.7 3.85812)
(1.72127 2.7 2.14466)
(1.73063 2.7 2.13715)
(3.1466 2.7 3.88573)
(2.41224 2.7 3.03261)
(3.1466 2.7 3.88573)
(1.70249 2.7 2.1596)
(1.71192 2.7 2.15217)
(3.11257 2.7 3.91304)
(2.38569 2.7 3.05354)
(3.11257 2.7 3.91304)
(1.68358 2.7 2.17438)
(1.69307 2.7 2.16703)
(3.07831 2.7 3.94005)
(2.35895 2.7 3.07424)
(3.07831 2.7 3.94005)
(1.66454 2.7 2.18898)
(1.67409 2.7 2.18172)
(3.04381 2.7 3.96677)
(2.33203 2.7 3.09471)
(3.04381 2.7 3.96677)
(1.64538 2.7 2.20343)
(1.65499 2.7 2.19625)
(3.00908 2.7 3.99318)
(2.30494 2.7 3.11495)
(3.00908 2.7 3.99318)
(1.62609 2.7 2.2177)
(1.63576 2.7 2.21061)
(2.97411 2.7 4.01928)
(2.27767 2.7 3.13494)
(2.97411 2.7 4.01928)
(1.60667 2.7 2.23181)
(1.61641 2.7 2.2248)
(2.93893 2.7 4.04509)
(2.25022 2.7 3.1547)
(2.93893 2.7 4.04509)
(1.58713 2.7 2.24574)
(1.59693 2.7 2.23882)
(2.90352 2.7 4.07058)
(2.22261 2.7 3.17421)
(2.90352 2.7 4.07058)
(1.56748 2.7 2.25951)
(1.57733 2.7 2.25267)
(2.86788 2.7 4.09576)
(2.19482 2.7 3.19349)
(2.86788 2.7 4.09576)
(1.5477 2.7 2.2731)
(1.55762 2.7 2.26635)
(2.83203 2.7 4.12063)
(2.16687 2.7 3.21252)
(2.83203 2.7 4.12063)
(1.5278 2.7 2.28652)
(1.53778 2.7 2.27985)
(2.79596 2.7 4.14519)
(2.13876 2.7 3.23131)
(2.79596 2.7 4.14519)
(1.50779 2.7 2.29976)
(1.51783 2.7 2.29319)
(2.75969 2.7 4.16943)
(2.11048 2.7 3.24985)
(2.75969 2.7 4.16943)
(1.48767 2.7 2.31284)
(1.49776 2.7 2.30634)
(2.7232 2.7 4.19335)
(2.08204 2.7 3.26814)
(2.7232 2.7 4.19335)
(1.46743 2.7 2.32573)
(1.47757 2.7 2.31933)
(2.6865 2.7 4.21696)
(2.05344 2.7 3.28619)
(2.6865 2.7 4.21696)
(1.44707 2.7 2.33845)
(1.45728 2.7 2.33213)
(2.6496 2.7 4.24024)
(2.02468 2.7 3.30398)
(2.6496 2.7 4.24024)
(1.42661 2.7 2.35099)
(1.43687 2.7 2.34476)
(2.61249 2.7 4.2632)
(1.99577 2.7 3.32152)
(2.61249 2.7 4.2632)
(1.40604 2.7 2.36334)
(1.41636 2.7 2.35721)
(2.57519 2.7 4.28584)
(1.96671 2.7 3.33881)
(2.57519 2.7 4.28584)
(1.38536 2.7 2.37553)
(1.39573 2.7 2.36948)
(2.53769 2.7 4.30815)
(1.9375 2.7 3.35585)
(2.53769 2.7 4.30815)
(1.36458 2.7 2.38752)
(1.375 2.7 2.38157)
(2.5 2.7 4.33013)
(1.90814 2.7 3.37263)
(2.5 2.7 4.33013)
(1.3437 2.7 2.39934)
(1.35417 2.7 2.39348)
(2.46212 2.7 4.35178)
(1.87864 2.7 3.38915)
(2.46212 2.7 4.35178)
(1.32271 2.7 2.41098)
(1.33323 2.7 2.40521)
(2.42405 2.7 4.3731)
(1.84899 2.7 3.40542)
(2.42405 2.7 4.3731)
(1.30162 2.7 2.42243)
(1.31219 2.7 2.41675)
(2.38579 2.7 4.39408)
(1.8192 2.7 3.42142)
(2.38579 2.7 4.39408)
(1.28043 2.7 2.43369)
(1.29105 2.7 2.42811)
(2.34736 2.7 4.41474)
(1.78928 2.7 3.43717)
(2.34736 2.7 4.41474)
(1.25914 2.7 2.44477)
(1.26981 2.7 2.43928)
(2.30874 2.7 4.43506)
(1.75921 2.7 3.45265)
(2.30874 2.7 4.43506)
(1.23776 2.7 2.45567)
(1.24847 2.7 2.45027)
(2.26995 2.7 4.45503)
(1.72902 2.7 3.46787)
(2.26995 2.7 4.45503)
(1.21628 2.7 2.46638)
(1.22704 2.7 2.46107)
(2.23099 2.7 4.47467)
(1.69869 2.7 3.48283)
(2.23099 2.7 4.47467)
(1.19471 2.7 2.4769)
(1.20552 2.7 2.47168)
(2.19185 2.7 4.49397)
(1.66823 2.7 3.49752)
(2.19185 2.7 4.49397)
(1.17305 2.7 2.48723)
(1.18391 2.7 2.48211)
(2.15255 2.7 4.51293)
(1.63765 2.7 3.51194)
(2.15255 2.7 4.51293)
(1.1513 2.7 2.49737)
(1.1622 2.7 2.49235)
(2.11309 2.7 4.53154)
(1.60694 2.7 3.5261)
(2.11309 2.7 4.53154)
(1.12947 2.7 2.50732)
(1.14041 2.7 2.50239)
(2.07347 2.7 4.54981)
(1.57611 2.7 3.53999)
(2.07347 2.7 4.54981)
(1.10754 2.7 2.51708)
(1.11853 2.7 2.51225)
(2.03368 2.7 4.56773)
(1.54515 2.7 3.55361)
(2.03368 2.7 4.56773)
(1.08553 2.7 2.52665)
(1.09656 2.7 2.52191)
(1.99375 2.7 4.5853)
(1.51408 2.7 3.56696)
(1.99375 2.7 4.5853)
(1.06344 2.7 2.53603)
(1.07451 2.7 2.53139)
(1.95365 2.7 4.60252)
(1.4829 2.7 3.58003)
(1.95365 2.7 4.60252)
(1.04127 2.7 2.54521)
(1.05238 2.7 2.54067)
(1.91342 2.7 4.6194)
(1.4516 2.7 3.59284)
(1.91342 2.7 4.6194)
(1.01902 2.7 2.5542)
(1.03017 2.7 2.54976)
(1.87303 2.7 4.63592)
(1.42019 2.7 3.60537)
(1.87303 2.7 4.63592)
(2.24574 2.7 -1.58713)
(2.23882 2.7 -1.59693)
(4.07058 2.7 -2.90352)
(3.17421 2.7 -2.22261)
(4.07058 2.7 -2.90352)
(2.25951 2.7 -1.56748)
(2.25267 2.7 -1.57733)
(4.09576 2.7 -2.86788)
(3.19349 2.7 -2.19482)
(4.09576 2.7 -2.86788)
(2.2731 2.7 -1.5477)
(2.26635 2.7 -1.55762)
(4.12063 2.7 -2.83203)
(3.21252 2.7 -2.16687)
(4.12063 2.7 -2.83203)
(2.28652 2.7 -1.5278)
(2.27985 2.7 -1.53778)
(4.14519 2.7 -2.79596)
(3.23131 2.7 -2.13876)
(4.14519 2.7 -2.79596)
(2.29976 2.7 -1.50779)
(2.29319 2.7 -1.51783)
(4.16943 2.7 -2.75969)
(3.24985 2.7 -2.11048)
(4.16943 2.7 -2.75969)
(2.31284 2.7 -1.48767)
(2.30634 2.7 -1.49776)
(4.19335 2.7 -2.7232)
(3.26814 2.7 -2.08204)
(4.19335 2.7 -2.7232)
(2.32573 2.7 -1.46743)
(2.31933 2.7 -1.47757)
(4.21696 2.7 -2.6865)
(3.28619 2.7 -2.05344)
(4.21696 2.7 -2.6865)
(2.33845 2.7 -1.44707)
(2.33213 2.7 -1.45728)
(4.24024 2.7 -2.6496)
(3.30398 2.7 -2.02468)
(4.24024 2.7 -2.6496)
(2.35099 2.7 -1.42661)
(2.34476 2.7 -1.43687)
(4.2632 2.7 -2.61249)
(3.32152 2.7 -1.99577)
(4.2632 2.7 -2.61249)
(2.36334 2.7 -1.40604)
(2.35721 2.7 -1.41636)
(4.28584 2.7 -2.57519)
(3.33881 2.7 -1.96671)
(4.28584 2.7 -2.57519)
(2.37553 2.7 -1.38536)
(2.36948 2.7 -1.39573)
(4.30815 2.7 -2.53769)
(3.35585 2.7 -1.9375)
(4.30815 2.7 -2.53769)
(2.38752 2.7 -1.36458)
(2.38157 2.7 -1.375)
(4.33013 2.7 -2.5)
(3.37263 2.7 -1.90814)
(4.33013 2.7 -2.5)
(2.39934 2.7 -1.3437)
(2.39348 2.7 -1.35417)
(4.35178 2.7 -2.46212)
(3.38915 2.7 -1.87864)
(4.35178 2.7 -2.46212)
(2.41098 2.7 -1.32271)
(2.40521 2.7 -1.33323)
(4.3731 2.7 -2.42405)
(3.40542 2.7 -1.84899)
(4.3731 2.7 -2.42405)
(2.42243 2.7 -1.30162)
(2.41675 2.7 -1.31219)
(4.39408 2.7 -2.38579)
(3.42142 2.7 -1.8192)
(4.39408 2.7 -2.38579)
(2.43369 2.7 -1.28043)
(2.42811 2.7 -1.29105)
(4.41474 2.7 -2.34736)
(3.43717 2.7 -1.78928)
(4.41474 2.7 -2.34736)
(2.44477 2.7 -1.25914)
(2.43928 2.7 -1.26981)
(4.43506 2.7 -2.30874)
(3.45265 2.7 -1.75921)
(4.43506 2.7 -2.30874)
(2.45567 2.7 -1.23776)
(2.45027 2.7 -1.24847)
(4.45503 2.7 -2.26995)
(3.46787 2.7 -1.72902)
(4.45503 2.7 -2.26995)
(2.46638 2.7 -1.21628)
(2.46107 2.7 -1.22704)
(4.47467 2.7 -2.23099)
(3.48283 2.7 -1.69869)
(4.47467 2.7 -2.23099)
(2.4769 2.7 -1.19471)
(2.47168 2.7 -1.20552)
(4.49397 2.7 -2.19185)
(3.49752 2.7 -1.66823)
(4.49397 2.7 -2.19185)
(2.48723 2.7 -1.17305)
(2.48211 2.7 -1.18391)
(4.51293 2.7 -2.15255)
(3.51194 2.7 -1.63765)
(4.51293 2.7 -2.15255)
(2.49737 2.7 -1.1513)
(2.49235 2.7 -1.1622)
(4.53154 2.7 -2.11309)
(3.5261 2.7 -1.60694)
(4.53154 2.7 -2.11309)
(2.50732 2.7 -1.12947)
(2.50239 2.7 -1.14041)
(4.54981 2.7 -2.07347)
(3.53999 2.7 -1.5761)
(4.54981 2.7 -2.07347)
(2.51708 2.7 -1.10754)
(2.51225 2.7 -1.11853)
(4.56773 2.7 -2.03368)
(3.55361 2.7 -1.54515)
(4.56773 2.7 -2.03368)
(2.52665 2.7 -1.08553)
(2.52191 2.7 -1.09656)
(4.5853 2.7 -1.99375)
(3.56696 2.7 -1.51408)
(4.5853 2.7 -1.99375)
(2.53603 2.7 -1.06344)
(2.53139 2.7 -1.07451)
(4.60252 2.7 -1.95366)
(3.58003 2.7 -1.4829)
(4.60252 2.7 -1.95366)
(2.54521 2.7 -1.04127)
(2.54067 2.7 -1.05238)
(4.6194 2.7 -1.91342)
(3.59284 2.7 -1.4516)
(4.6194 2.7 -1.91342)
(2.5542 2.7 -1.01902)
(2.54976 2.7 -1.03017)
(4.63592 2.7 -1.87303)
(3.60537 2.7 -1.42019)
(4.63592 2.7 -1.87303)
(2.563 2.7 -0.996695)
(2.55865 2.7 -1.00788)
(4.65209 2.7 -1.83251)
(3.61762 2.7 -1.38868)
(4.65209 2.7 -1.83251)
(2.5716 2.7 -0.974291)
(2.56735 2.7 -0.985512)
(4.6679 2.7 -1.79184)
(3.62961 2.7 -1.35705)
(4.6679 2.7 -1.79184)
(2.58 2.7 -0.951813)
(2.57585 2.7 -0.96307)
(4.68336 2.7 -1.75104)
(3.64131 2.7 -1.32533)
(4.68336 2.7 -1.75104)
(2.58821 2.7 -0.929262)
(2.58415 2.7 -0.940556)
(4.69846 2.7 -1.7101)
(3.65274 2.7 -1.2935)
(4.69846 2.7 -1.7101)
(2.59622 2.7 -0.906641)
(2.59226 2.7 -0.917969)
(4.71321 2.7 -1.66903)
(3.66388 2.7 -1.26158)
(4.71321 2.7 -1.66903)
(2.60403 2.7 -0.88395)
(2.60018 2.7 -0.895312)
(4.72759 2.7 -1.62784)
(3.67475 2.7 -1.22955)
(4.72759 2.7 -1.62784)
(2.61165 2.7 -0.861192)
(2.60789 2.7 -0.872588)
(4.74162 2.7 -1.58652)
(3.68534 2.7 -1.19744)
(4.74162 2.7 -1.58652)
(2.61906 2.7 -0.838369)
(2.6154 2.7 -0.849797)
(4.75528 2.7 -1.54509)
(3.69565 2.7 -1.16524)
(4.75528 2.7 -1.54509)
(2.62628 2.7 -0.815482)
(2.62272 2.7 -0.826941)
(4.76858 2.7 -1.50353)
(3.70568 2.7 -1.13294)
(4.76858 2.7 -1.50353)
(2.6333 2.7 -0.792532)
(2.62984 2.7 -0.804022)
(4.78152 2.7 -1.46186)
(3.71543 2.7 -1.10056)
(4.78152 2.7 -1.46186)
(2.64011 2.7 -0.769522)
(2.63675 2.7 -0.781042)
(4.7941 2.7 -1.42008)
(3.72489 2.7 -1.0681)
(4.7941 2.7 -1.42008)
(2.64673 2.7 -0.746454)
(2.64347 2.7 -0.758003)
(4.80631 2.7 -1.37819)
(3.73407 2.7 -1.03555)
(4.80631 2.7 -1.37819)
(2.65314 2.7 -0.723329)
(2.64998 2.7 -0.734906)
(4.81815 2.7 -1.33619)
(3.74296 2.7 -1.00292)
(4.81815 2.7 -1.33619)
(2.65935 2.7 -0.700149)
(2.6563 2.7 -0.711752)
(4.82963 2.7 -1.29409)
(3.75157 2.7 -0.970223)
(4.82963 2.7 -1.29409)
(2.66536 2.7 -0.676915)
(2.66241 2.7 -0.688545)
(4.84074 2.7 -1.2519)
(3.7599 2.7 -0.937447)
(4.84074 2.7 -1.2519)
(2.67116 2.7 -0.65363)
(2.66831 2.7 -0.665285)
(4.85148 2.7 -1.20961)
(3.76793 2.7 -0.904601)
(4.85148 2.7 -1.20961)
(2.67677 2.7 -0.630295)
(2.67402 2.7 -0.641975)
(4.86185 2.7 -1.16723)
(3.77568 2.7 -0.871685)
(4.86185 2.7 -1.16723)
(2.68217 2.7 -0.606912)
(2.67952 2.7 -0.618615)
(4.87185 2.7 -1.12475)
(3.78315 2.7 -0.838704)
(4.87185 2.7 -1.12475)
(2.68736 2.7 -0.583483)
(2.68481 2.7 -0.595209)
(4.88148 2.7 -1.0822)
(3.79032 2.7 -0.805658)
(4.88148 2.7 -1.0822)
(2.69235 2.7 -0.560009)
(2.68991 2.7 -0.571757)
(4.89074 2.7 -1.03956)
(3.79721 2.7 -0.772551)
(4.89074 2.7 -1.03956)
(2.69713 2.7 -0.536493)
(2.69479 2.7 -0.548262)
(4.89962 2.7 -0.99684)
(3.80381 2.7 -0.739385)
(4.89962 2.7 -0.99684)
(2.70171 2.7 -0.512936)
(2.69947 2.7 -0.524725)
(4.90814 2.7 -0.954045)
(3.81011 2.7 -0.706163)
(4.90814 2.7 -0.954045)
(2.70609 2.7 -0.48934)
(2.70395 2.7 -0.501148)
(4.91627 2.7 -0.911178)
(3.81613 2.7 -0.672887)
(4.91627 2.7 -0.911178)
(2.71025 2.7 -0.465707)
(2.70822 2.7 -0.477532)
(4.92404 2.7 -0.868241)
(3.82186 2.7 -0.63956)
(4.92404 2.7 -0.868241)
(2.71421 2.7 -0.442038)
(2.71229 2.7 -0.453881)
(4.93143 2.7 -0.825238)
(3.82729 2.7 -0.606184)
(4.93143 2.7 -0.825238)
(2.71797 2.7 -0.418335)
(2.71614 2.7 -0.430195)
(4.93844 2.7 -0.782172)
(3.83244 2.7 -0.572762)
(4.93844 2.7 -0.782172)
(2.72152 2.7 -0.394601)
(2.71979 2.7 -0.406476)
(4.94508 2.7 -0.739047)
(3.83729 2.7 -0.539296)
(4.94508 2.7 -0.739047)
(2.72485 2.7 -0.370836)
(2.72324 2.7 -0.382726)
(4.95134 2.7 -0.695866)
(3.84185 2.7 -0.505789)
(4.95134 2.7 -0.695866)
(2.72799 2.7 -0.347044)
(2.72647 2.7 -0.358947)
(4.95722 2.7 -0.652631)
(3.84612 2.7 -0.472244)
(4.95722 2.7 -0.652631)
(2.73091 2.7 -0.323225)
(2.7295 2.7 -0.335141)
(4.96273 2.7 -0.609347)
(3.85009 2.7 -0.438663)
(4.96273 2.7 -0.609347)
(2.73363 2.7 -0.299381)
(2.73232 2.7 -0.311309)
(4.96786 2.7 -0.566016)
(3.85377 2.7 -0.405048)
(4.96786 2.7 -0.566016)
(2.73614 2.7 -0.275515)
(2.73494 2.7 -0.287453)
(4.97261 2.7 -0.522642)
(3.85716 2.7 -0.371403)
(4.97261 2.7 -0.522642)
(2.73844 2.7 -0.251627)
(2.73734 2.7 -0.263576)
(4.97698 2.7 -0.479229)
(3.86025 2.7 -0.337729)
(4.97698 2.7 -0.479229)
(2.74053 2.7 -0.22772)
(2.73954 2.7 -0.239678)
(4.98097 2.7 -0.435779)
(3.86306 2.7 -0.304029)
(4.98097 2.7 -0.435779)
(2.74241 2.7 -0.203796)
(2.74152 2.7 -0.215763)
(4.98459 2.7 -0.392295)
(3.86556 2.7 -0.270306)
(4.98459 2.7 -0.392295)
(2.74409 2.7 -0.179857)
(2.7433 2.7 -0.19183)
(4.98782 2.7 -0.348783)
(3.86777 2.7 -0.236563)
(4.98782 2.7 -0.348783)
(2.74555 2.7 -0.155904)
(2.74487 2.7 -0.167883)
(4.99067 2.7 -0.305243)
(3.86969 2.7 -0.202802)
(4.99067 2.7 -0.305243)
(2.74681 2.7 -0.131938)
(2.74623 2.7 -0.143924)
(4.99315 2.7 -0.26168)
(3.87131 2.7 -0.169025)
(4.99315 2.7 -0.26168)
(2.74785 2.7 -0.107963)
(2.74738 2.7 -0.119953)
(4.99524 2.7 -0.218097)
(3.87264 2.7 -0.135236)
(4.99524 2.7 -0.218097)
(2.74869 2.7 -0.08398)
(2.74832 2.7 -0.095973)
(4.99695 2.7 -0.174498)
(3.87367 2.7 -0.101436)
(4.99695 2.7 -0.174498)
(2.74932 2.7 -0.05999)
(2.74906 2.7 -0.071987)
(4.99829 2.7 -0.130885)
(3.87441 2.7 -0.067628)
(4.99829 2.7 -0.130885)
(2.74974 2.7 -0.035996)
(2.74958 2.7 -0.047994)
(4.99924 2.7 -0.087262)
(3.87485 2.7 -0.033815)
(4.99924 2.7 -0.087262)
(2.74995 2.7 -0.011999)
(2.74989 2.7 -0.023998)
(4.99981 2.7 -0.043633)
(3.875 2.7 0)
(4.99981 2.7 -0.043633)
(2.74995 2.7 0.011999)
(2.75 2.7 0)
(5 2.7 0)
(3.87485 2.7 0.033815)
(5 2.7 0)
(2.74974 2.7 0.035996)
(2.74989 2.7 0.023998)
(4.99981 2.7 0.043633)
(3.87441 2.7 0.067628)
(4.99981 2.7 0.043633)
(2.74932 2.7 0.05999)
(2.74958 2.7 0.047994)
(4.99924 2.7 0.087262)
(3.87367 2.7 0.101436)
(4.99924 2.7 0.087262)
(2.74869 2.7 0.08398)
(2.74906 2.7 0.071987)
(4.99829 2.7 0.130885)
(3.87264 2.7 0.135236)
(4.99829 2.7 0.130885)
(2.74785 2.7 0.107963)
(2.74832 2.7 0.095973)
(4.99695 2.7 0.174498)
(3.87131 2.7 0.169025)
(4.99695 2.7 0.174498)
(2.74681 2.7 0.131938)
(2.74738 2.7 0.119953)
(4.99524 2.7 0.218097)
(3.86969 2.7 0.202802)
(4.99524 2.7 0.218097)
(2.74555 2.7 0.155904)
(2.74623 2.7 0.143924)
(4.99315 2.7 0.26168)
(3.86777 2.7 0.236563)
(4.99315 2.7 0.26168)
(2.74409 2.7 0.179857)
(2.74487 2.7 0.167883)
(4.99067 2.7 0.305243)
(3.86556 2.7 0.270306)
(4.99067 2.7 0.305243)
(2.74241 2.7 0.203796)
(2.7433 2.7 0.19183)
(4.98782 2.7 0.348783)
(3.86306 2.7 0.304029)
(4.98782 2.7 0.348783)
(2.74053 2.7 0.22772)
(2.74152 2.7 0.215763)
(4.98459 2.7 0.392295)
(3.86025 2.7 0.337729)
(4.98459 2.7 0.392295)
(2.73844 2.7 0.251627)
(2.73954 2.7 0.239678)
(4.98097 2.7 0.435779)
(3.85716 2.7 0.371403)
(4.98097 2.7 0.435779)
(2.73614 2.7 0.275515)
(2.73734 2.7 0.263576)
(4.97698 2.7 0.479229)
(3.85377 2.7 0.405048)
(4.97698 2.7 0.479229)
(2.73363 2.7 0.299381)
(2.73494 2.7 0.287453)
(4.97261 2.7 0.522642)
(3.85009 2.7 0.438663)
(4.97261 2.7 0.522642)
(2.73091 2.7 0.323225)
(2.73232 2.7 0.311309)
(4.96786 2.7 0.566016)
(3.84612 2.7 0.472244)
(4.96786 2.7 0.566016)
(2.72799 2.7 0.347044)
(2.7295 2.7 0.335141)
(4.96273 2.7 0.609347)
(3.84185 2.7 0.505789)
(4.96273 2.7 0.609347)
(2.72485 2.7 0.370836)
(2.72647 2.7 0.358947)
(4.95722 2.7 0.652631)
(3.83729 2.7 0.539296)
(4.95722 2.7 0.652631)
(2.72152 2.7 0.394601)
(2.72324 2.7 0.382726)
(4.95134 2.7 0.695866)
(3.83244 2.7 0.572762)
(4.95134 2.7 0.695866)
(2.71797 2.7 0.418335)
(2.71979 2.7 0.406476)
(4.94508 2.7 0.739047)
(3.82729 2.7 0.606184)
(4.94508 2.7 0.739047)
(2.71421 2.7 0.442038)
(2.71614 2.7 0.430195)
(4.93844 2.7 0.782172)
(3.82186 2.7 0.63956)
(4.93844 2.7 0.782172)
(2.71025 2.7 0.465707)
(2.71229 2.7 0.453881)
(4.93143 2.7 0.825238)
(3.81613 2.7 0.672887)
(4.93143 2.7 0.825238)
(2.70609 2.7 0.48934)
(2.70822 2.7 0.477532)
(4.92404 2.7 0.868241)
(3.81011 2.7 0.706163)
(4.92404 2.7 0.868241)
(2.70171 2.7 0.512936)
(2.70395 2.7 0.501148)
(4.91627 2.7 0.911178)
(3.80381 2.7 0.739385)
(4.91627 2.7 0.911178)
(2.69713 2.7 0.536493)
(2.69947 2.7 0.524725)
(4.90814 2.7 0.954045)
(3.79721 2.7 0.772551)
(4.90814 2.7 0.954045)
(2.69235 2.7 0.560009)
(2.69479 2.7 0.548262)
(4.89962 2.7 0.99684)
(3.79032 2.7 0.805658)
(4.89962 2.7 0.99684)
(2.68736 2.7 0.583483)
(2.68991 2.7 0.571757)
(4.89074 2.7 1.03956)
(3.78315 2.7 0.838704)
(4.89074 2.7 1.03956)
(2.68217 2.7 0.606912)
(2.68481 2.7 0.595209)
(4.88148 2.7 1.0822)
(3.77568 2.7 0.871685)
(4.88148 2.7 1.0822)
(2.67677 2.7 0.630295)
(2.67952 2.7 0.618615)
(4.87185 2.7 1.12475)
(3.76793 2.7 0.904601)
(4.87185 2.7 1.12475)
(2.67116 2.7 0.65363)
(2.67402 2.7 0.641975)
(4.86185 2.7 1.16723)
(3.7599 2.7 0.937448)
(4.86185 2.7 1.16723)
(2.66536 2.7 0.676915)
(2.66831 2.7 0.665285)
(4.85148 2.7 1.20961)
(3.75157 2.7 0.970222)
(4.85148 2.7 1.20961)
(2.65935 2.7 0.700149)
(2.66241 2.7 0.688545)
(4.84074 2.7 1.2519)
(3.74296 2.7 1.00292)
(4.84074 2.7 1.2519)
(2.65314 2.7 0.723329)
(2.6563 2.7 0.711752)
(4.82963 2.7 1.29409)
(3.73407 2.7 1.03555)
(4.82963 2.7 1.29409)
(2.64673 2.7 0.746454)
(2.64998 2.7 0.734906)
(4.81815 2.7 1.33619)
(3.72489 2.7 1.0681)
(4.81815 2.7 1.33619)
(2.64011 2.7 0.769522)
(2.64347 2.7 0.758003)
(4.80631 2.7 1.37819)
(3.71543 2.7 1.10056)
(4.80631 2.7 1.37819)
(2.6333 2.7 0.792532)
(2.63675 2.7 0.781042)
(4.7941 2.7 1.42008)
(3.70568 2.7 1.13294)
(4.7941 2.7 1.42008)
(2.62628 2.7 0.815482)
(2.62984 2.7 0.804022)
(4.78152 2.7 1.46186)
(3.69565 2.7 1.16524)
(4.78152 2.7 1.46186)
(2.61906 2.7 0.838369)
(2.62272 2.7 0.826941)
(4.76858 2.7 1.50353)
(3.68534 2.7 1.19744)
(4.76858 2.7 1.50353)
(2.61165 2.7 0.861192)
(2.6154 2.7 0.849797)
(4.75528 2.7 1.54509)
(3.67475 2.7 1.22955)
(4.75528 2.7 1.54509)
(2.60403 2.7 0.88395)
(2.60789 2.7 0.872588)
(4.74162 2.7 1.58652)
(3.66388 2.7 1.26158)
(4.74162 2.7 1.58652)
(2.59622 2.7 0.906641)
(2.60018 2.7 0.895312)
(4.72759 2.7 1.62784)
(3.65274 2.7 1.2935)
(4.72759 2.7 1.62784)
(2.58821 2.7 0.929262)
(2.59226 2.7 0.917969)
(4.71321 2.7 1.66903)
(3.64131 2.7 1.32533)
(4.71321 2.7 1.66903)
(2.58 2.7 0.951813)
(2.58415 2.7 0.940556)
(4.69846 2.7 1.7101)
(3.62961 2.7 1.35705)
(4.69846 2.7 1.7101)
(2.5716 2.7 0.974291)
(2.57585 2.7 0.96307)
(4.68336 2.7 1.75104)
(3.61762 2.7 1.38868)
(4.68336 2.7 1.75104)
(2.563 2.7 0.996695)
(2.56735 2.7 0.985512)
(4.6679 2.7 1.79184)
(3.60537 2.7 1.42019)
(4.6679 2.7 1.79184)
(2.5542 2.7 1.01902)
(2.55865 2.7 1.00788)
(4.65209 2.7 1.83251)
(3.59284 2.7 1.4516)
(4.65209 2.7 1.83251)
(2.54521 2.7 1.04127)
(2.54976 2.7 1.03017)
(4.63592 2.7 1.87303)
(3.58003 2.7 1.4829)
(4.63592 2.7 1.87303)
(2.53603 2.7 1.06344)
(2.54067 2.7 1.05238)
(4.6194 2.7 1.91342)
(3.56696 2.7 1.51408)
(4.6194 2.7 1.91342)
(2.52665 2.7 1.08553)
(2.53139 2.7 1.07451)
(4.60252 2.7 1.95365)
(3.55361 2.7 1.54515)
(4.60252 2.7 1.95365)
(2.51708 2.7 1.10754)
(2.52191 2.7 1.09656)
(4.5853 2.7 1.99375)
(3.53999 2.7 1.57611)
(4.5853 2.7 1.99375)
(2.50732 2.7 1.12947)
(2.51225 2.7 1.11853)
(4.56773 2.7 2.03368)
(3.5261 2.7 1.60694)
(4.56773 2.7 2.03368)
(2.49737 2.7 1.1513)
(2.50239 2.7 1.14041)
(4.54981 2.7 2.07347)
(3.51194 2.7 1.63765)
(4.54981 2.7 2.07347)
(2.48723 2.7 1.17305)
(2.49235 2.7 1.1622)
(4.53154 2.7 2.11309)
(3.49752 2.7 1.66823)
(4.53154 2.7 2.11309)
(2.4769 2.7 1.19471)
(2.48211 2.7 1.18391)
(4.51293 2.7 2.15255)
(3.48283 2.7 1.69869)
(4.51293 2.7 2.15255)
(2.46638 2.7 1.21628)
(2.47168 2.7 1.20552)
(4.49397 2.7 2.19185)
(3.46787 2.7 1.72902)
(4.49397 2.7 2.19185)
(2.45567 2.7 1.23776)
(2.46107 2.7 1.22704)
(4.47467 2.7 2.23099)
(3.45265 2.7 1.75921)
(4.47467 2.7 2.23099)
(2.44477 2.7 1.25914)
(2.45027 2.7 1.24847)
(4.45503 2.7 2.26995)
(3.43717 2.7 1.78928)
(4.45503 2.7 2.26995)
(2.43369 2.7 1.28043)
(2.43928 2.7 1.26981)
(4.43506 2.7 2.30874)
(3.42142 2.7 1.8192)
(4.43506 2.7 2.30874)
(2.42243 2.7 1.30162)
(2.42811 2.7 1.29105)
(4.41474 2.7 2.34736)
(3.40542 2.7 1.84899)
(4.41474 2.7 2.34736)
(-0.442038 2.7 -2.71421)
(-0.453881 2.7 -2.71229)
(-0.825238 2.7 -4.93143)
(-0.606184 2.7 -3.82729)
(-0.825238 2.7 -4.93143)
(-0.418335 2.7 -2.71797)
(-0.430195 2.7 -2.71614)
(-0.782172 2.7 -4.93844)
(-0.572762 2.7 -3.83244)
(-0.782172 2.7 -4.93844)
(-0.394601 2.7 -2.72152)
(-0.406476 2.7 -2.71979)
(-0.739047 2.7 -4.94508)
(-0.539296 2.7 -3.83729)
(-0.739047 2.7 -4.94508)
(-0.370836 2.7 -2.72485)
(-0.382726 2.7 -2.72324)
(-0.695866 2.7 -4.95134)
(-0.505789 2.7 -3.84185)
(-0.695866 2.7 -4.95134)
(-0.347044 2.7 -2.72799)
(-0.358947 2.7 -2.72647)
(-0.652631 2.7 -4.95722)
(-0.472244 2.7 -3.84612)
(-0.652631 2.7 -4.95722)
(-0.323225 2.7 -2.73091)
(-0.335141 2.7 -2.7295)
(-0.609347 2.7 -4.96273)
(-0.438663 2.7 -3.85009)
(-0.609347 2.7 -4.96273)
(-0.299381 2.7 -2.73363)
(-0.311309 2.7 -2.73232)
(-0.566016 2.7 -4.96786)
(-0.405048 2.7 -3.85377)
(-0.566016 2.7 -4.96786)
(-0.275515 2.7 -2.73614)
(-0.287453 2.7 -2.73494)
(-0.522642 2.7 -4.97261)
(-0.371403 2.7 -3.85716)
(-0.522642 2.7 -4.97261)
(-0.251627 2.7 -2.73844)
(-0.263576 2.7 -2.73734)
(-0.479229 2.7 -4.97698)
(-0.337729 2.7 -3.86025)
(-0.479229 2.7 -4.97698)
(-0.22772 2.7 -2.74053)
(-0.239678 2.7 -2.73954)
(-0.435779 2.7 -4.98097)
(-0.304029 2.7 -3.86306)
(-0.435779 2.7 -4.98097)
(-0.203796 2.7 -2.74241)
(-0.215763 2.7 -2.74152)
(-0.392295 2.7 -4.98459)
(-0.270306 2.7 -3.86556)
(-0.392295 2.7 -4.98459)
(-0.179857 2.7 -2.74409)
(-0.19183 2.7 -2.7433)
(-0.348783 2.7 -4.98782)
(-0.236563 2.7 -3.86777)
(-0.348783 2.7 -4.98782)
(-0.155904 2.7 -2.74555)
(-0.167883 2.7 -2.74487)
(-0.305243 2.7 -4.99067)
(-0.202802 2.7 -3.86969)
(-0.305243 2.7 -4.99067)
(-0.131938 2.7 -2.74681)
(-0.143924 2.7 -2.74623)
(-0.26168 2.7 -4.99315)
(-0.169025 2.7 -3.87131)
(-0.26168 2.7 -4.99315)
(-0.107963 2.7 -2.74785)
(-0.119953 2.7 -2.74738)
(-0.218097 2.7 -4.99524)
(-0.135236 2.7 -3.87264)
(-0.218097 2.7 -4.99524)
(-0.08398 2.7 -2.74869)
(-0.095973 2.7 -2.74832)
(-0.174498 2.7 -4.99695)
(-0.101436 2.7 -3.87367)
(-0.174498 2.7 -4.99695)
(-0.05999 2.7 -2.74932)
(-0.071987 2.7 -2.74906)
(-0.130885 2.7 -4.99829)
(-0.067628 2.7 -3.87441)
(-0.130885 2.7 -4.99829)
(-0.035996 2.7 -2.74974)
(-0.047994 2.7 -2.74958)
(-0.087262 2.7 -4.99924)
(-0.033815 2.7 -3.87485)
(-0.087262 2.7 -4.99924)
(-0.011999 2.7 -2.74995)
(-0.023998 2.7 -2.74989)
(-0.043633 2.7 -4.99981)
(0 2.7 -3.875)
(-0.043633 2.7 -4.99981)
(0.011999 2.7 -2.74995)
(0 2.7 -2.75)
(0 2.7 -5)
(0.033815 2.7 -3.87485)
(0 2.7 -5)
(0.035996 2.7 -2.74974)
(0.023998 2.7 -2.74989)
(0.043633 2.7 -4.99981)
(0.067628 2.7 -3.87441)
(0.043633 2.7 -4.99981)
(0.05999 2.7 -2.74932)
(0.047994 2.7 -2.74958)
(0.087262 2.7 -4.99924)
(0.101436 2.7 -3.87367)
(0.087262 2.7 -4.99924)
(0.08398 2.7 -2.74869)
(0.071987 2.7 -2.74906)
(0.130885 2.7 -4.99829)
(0.135236 2.7 -3.87264)
(0.130885 2.7 -4.99829)
(0.107963 2.7 -2.74785)
(0.095973 2.7 -2.74832)
(0.174498 2.7 -4.99695)
(0.169025 2.7 -3.87131)
(0.174498 2.7 -4.99695)
(0.131938 2.7 -2.74681)
(0.119953 2.7 -2.74738)
(0.218097 2.7 -4.99524)
(0.202802 2.7 -3.86969)
(0.218097 2.7 -4.99524)
(0.155904 2.7 -2.74555)
(0.143924 2.7 -2.74623)
(0.26168 2.7 -4.99315)
(0.236563 2.7 -3.86777)
(0.26168 2.7 -4.99315)
(0.179857 2.7 -2.74409)
(0.167883 2.7 -2.74487)
(0.305243 2.7 -4.99067)
(0.270306 2.7 -3.86556)
(0.305243 2.7 -4.99067)
(0.203796 2.7 -2.74241)
(0.19183 2.7 -2.7433)
(0.348783 2.7 -4.98782)
(0.304029 2.7 -3.86306)
(0.348783 2.7 -4.98782)
(0.22772 2.7 -2.74053)
(0.215763 2.7 -2.74152)
(0.392295 2.7 -4.98459)
(0.337729 2.7 -3.86025)
(0.392295 2.7 -4.98459)
(0.251627 2.7 -2.73844)
(0.239678 2.7 -2.73954)
(0.435779 2.7 -4.98097)
(0.371403 2.7 -3.85716)
(0.435779 2.7 -4.98097)
(0.275515 2.7 -2.73614)
(0.263576 2.7 -2.73734)
(0.479229 2.7 -4.97698)
(0.405048 2.7 -3.85377)
(0.479229 2.7 -4.97698)
(0.299381 2.7 -2.73363)
(0.287453 2.7 -2.73494)
(0.522642 2.7 -4.97261)
(0.438663 2.7 -3.85009)
(0.522642 2.7 -4.97261)
(0.323225 2.7 -2.73091)
(0.311309 2.7 -2.73232)
(0.566016 2.7 -4.96786)
(0.472244 2.7 -3.84612)
(0.566016 2.7 -4.96786)
(0.347044 2.7 -2.72799)
(0.335141 2.7 -2.7295)
(0.609347 2.7 -4.96273)
(0.505789 2.7 -3.84185)
(0.609347 2.7 -4.96273)
(0.370836 2.7 -2.72485)
(0.358947 2.7 -2.72647)
(0.652631 2.7 -4.95722)
(0.539296 2.7 -3.83729)
(0.652631 2.7 -4.95722)
(0.394601 2.7 -2.72152)
(0.382726 2.7 -2.72324)
(0.695866 2.7 -4.95134)
(0.572762 2.7 -3.83244)
(0.695866 2.7 -4.95134)
(0.418335 2.7 -2.71797)
(0.406476 2.7 -2.71979)
(0.739047 2.7 -4.94508)
(0.606184 2.7 -3.82729)
(0.739047 2.7 -4.94508)
(0.442038 2.7 -2.71421)
(0.430195 2.7 -2.71614)
(0.782172 2.7 -4.93844)
(0.63956 2.7 -3.82186)
(0.782172 2.7 -4.93844)
(0.465707 2.7 -2.71025)
(0.453881 2.7 -2.71229)
(0.825238 2.7 -4.93143)
(0.672887 2.7 -3.81613)
(0.825238 2.7 -4.93143)
(0.48934 2.7 -2.70609)
(0.477532 2.7 -2.70822)
(0.868241 2.7 -4.92404)
(0.706163 2.7 -3.81011)
(0.868241 2.7 -4.92404)
(0.512936 2.7 -2.70171)
(0.501148 2.7 -2.70395)
(0.911178 2.7 -4.91627)
(0.739385 2.7 -3.80381)
(0.911178 2.7 -4.91627)
(0.536493 2.7 -2.69713)
(0.524725 2.7 -2.69948)
(0.954045 2.7 -4.90814)
(0.772551 2.7 -3.79721)
(0.954045 2.7 -4.90814)
(0.560009 2.7 -2.69235)
(0.548262 2.7 -2.69479)
(0.99684 2.7 -4.89962)
(0.805658 2.7 -3.79032)
(0.99684 2.7 -4.89962)
(0.583483 2.7 -2.68736)
(0.571757 2.7 -2.68991)
(1.03956 2.7 -4.89074)
(0.838704 2.7 -3.78315)
(1.03956 2.7 -4.89074)
(0.606912 2.7 -2.68217)
(0.595209 2.7 -2.68481)
(1.0822 2.7 -4.88148)
(0.871685 2.7 -3.77568)
(1.0822 2.7 -4.88148)
(0.630295 2.7 -2.67677)
(0.618615 2.7 -2.67952)
(1.12475 2.7 -4.87185)
(0.904601 2.7 -3.76793)
(1.12475 2.7 -4.87185)
(0.65363 2.7 -2.67116)
(0.641975 2.7 -2.67402)
(1.16723 2.7 -4.86185)
(0.937448 2.7 -3.7599)
(1.16723 2.7 -4.86185)
(0.676915 2.7 -2.66536)
(0.665285 2.7 -2.66831)
(1.20961 2.7 -4.85148)
(0.970222 2.7 -3.75157)
(1.20961 2.7 -4.85148)
(0.700149 2.7 -2.65935)
(0.688545 2.7 -2.66241)
(1.2519 2.7 -4.84074)
(1.00292 2.7 -3.74296)