/*--------------------------------*- C++ -*----------------------------------*\
| =========                 |                                                 |
| \\      /  F ield         | OpenFOAM: The Open Source CFD Toolbox           |
|  \\    /   O peration     | Version:  v2012                                 |
|   \\  /    A nd           | Website:  www.openfoam.com                      |
|    \\/     M anipulation  |                                                 |
\*---------------------------------------------------------------------------*/
FoamFile
{
    version     2.0;
    format      ascii;
    class       featureEdgeMesh;
    location    "constant/triSurface";
    object      tornadoSimulator.eMesh;
}
// * * * * * * * * * * * * * * * * * * * * * * * * * * * * * * * * * * * * * //


// points:

6503
(
(0.886711 0.6764 2.26775)
(1.00758 0.6764 2.22049)
(0.64064 0.6764 2.34916)
(0.765845 0.6764 2.31501)
(0.387311 0.6764 2.40394)
(0.129593 0.6764 2.43149)
(0.259186 0.6764 2.42459)
(-0.129593 0.6764 2.43149)
(0 0.6764 2.4384)
(-0.387311 0.6764 2.40394)
(-0.259186 0.6764 2.42459)
(-0.64064 0.6764 2.34916)
(-0.886711 0.6764 2.26775)
(-0.765845 0.6764 2.31501)
(-1.12273 0.6764 2.16065)
(-1.00758 0.6764 2.22049)
(-1.34604 0.6764 2.02907)
(-1.55409 0.6764 1.8745)
(-1.45418 0.6764 1.95733)
(-1.74453 0.6764 1.69869)
(-1.654 0.6764 1.79167)
(-1.91521 0.6764 1.50364)
(-1.83507 0.6764 1.60571)
(-2.06419 0.6764 1.29154)
(-1.99535 0.6764 1.40156)
(-2.18978 0.6764 1.06482)
(-2.13302 0.6764 1.18153)
(-2.29055 0.6764 0.826028)
(-2.24653 0.6764 0.948109)
(-2.36538 0.6764 0.577877)
(-2.33458 0.6764 0.703947)
(-2.4134 0.6764 0.323179)
(-2.39618 0.6764 0.451808)
(-2.43408 0.6764 0.06482)
(-2.43063 0.6764 0.194551)
(-2.42718 0.6764 -0.194275)
(-2.43754 0.6764 -0.064911)
(-2.39278 0.6764 -0.451168)
(-2.41683 0.6764 -0.323638)
(-2.33127 0.6764 -0.702949)
(-2.36874 0.6764 -0.578697)
(-2.2938 0.6764 -0.8272)
(-2.13 0.6764 -1.17985)
(-2.19288 0.6764 -1.06633)
(-2.06712 0.6764 -1.29338)
(-1.83247 0.6764 -1.60344)
(-1.91793 0.6764 -1.50577)
(-1.65165 0.6764 -1.78913)
(-1.74701 0.6764 -1.70111)
(-1.45212 0.6764 -1.95456)
(-1.23614 0.6764 -2.09784)
(-1.34795 0.6764 -2.03195)
(-1.00615 0.6764 -2.21734)
(-1.12433 0.6764 -2.16372)
(-0.764759 0.6764 -2.31173)
(-0.887969 0.6764 -2.27097)
(-0.514705 0.6764 -2.37992)
(-0.641549 0.6764 -2.35249)
(-0.258819 0.6764 -2.42115)
(-0.38786 0.6764 -2.40735)
(0 0.6764 -2.43494)
(-0.129777 0.6764 -2.43494)
(0.258819 0.6764 -2.42115)
(0.129777 0.6764 -2.43494)
(0.514705 0.6764 -2.37992)
(0.38786 0.6764 -2.40735)
(0.764759 0.6764 -2.31173)
(0.641549 0.6764 -2.35249)
(1.00615 0.6764 -2.21734)
(0.887969 0.6764 -2.27097)
(1.23614 0.6764 -2.09784)
(1.45212 0.6764 -1.95456)
(1.34795 0.6764 -2.03195)
(1.65165 0.6764 -1.78913)
(1.83247 0.6764 -1.60344)
(1.74701 0.6764 -1.70111)
(1.91793 0.6764 -1.50577)
(2.13 0.6764 -1.17985)
(2.06711 0.6764 -1.29338)
(2.19288 0.6764 -1.06633)
(2.33127 0.6764 -0.702949)
(2.2938 0.6764 -0.8272)
(2.39278 0.6764 -0.451168)
(2.36874 0.6764 -0.578697)
(2.42718 0.6764 -0.194275)
(2.41683 0.6764 -0.323638)
(2.43408 0.6764 0.06482)
(2.43754 0.6764 -0.064911)
(2.4134 0.6764 0.323179)
(2.43063 0.6764 0.194551)
(2.39618 0.6764 0.451808)
(2.29055 0.6764 0.826028)
(2.33458 0.6764 0.703947)
(2.18978 0.6764 1.06482)
(2.24653 0.6764 0.948109)
(2.06419 0.6764 1.29154)
(2.13302 0.6764 1.18153)
(1.91521 0.6764 1.50364)
(1.99535 0.6764 1.40156)
(1.74453 0.6764 1.69869)
(1.83507 0.6764 1.60571)
(1.55409 0.6764 1.8745)
(1.654 0.6764 1.79167)
(1.34604 0.6764 2.02907)
(1.45418 0.6764 1.95733)
(1.12273 0.6764 2.16065)
(-0.129593 0.6764 2.43149)
(-0.259186 0.6764 2.42459)
(0 0.6764 2.4384)
(0.128243 0.6764 2.40617)
(0.256486 0.6764 2.39933)
(0 0.6764 2.413)
(0.145792 0.6764 2.73543)
(0.291584 0.6764 2.72766)
(0 0.6764 2.7432)
(-2.73077 0.6764 0.432511)
(-2.7081 0.6764 0.575624)
(-2.76102 0.6764 0.144699)
(-2.76102 0.6764 -0.144699)
(-2.7686 0.6764 0)
(-2.6706 0.6764 -0.715584)
(-2.7081 0.6764 -0.575624)
(-2.58117 0.6764 -0.990818)
(-2.46346 0.6764 -1.2552)
(-2.52924 0.6764 -1.12609)
(-2.14866 0.6764 -1.73995)
(-2.23984 0.6764 -1.62734)
(-1.95501 0.6764 -1.95501)
(-2.05747 0.6764 -1.85255)
(-1.73995 0.6764 -2.14866)
(-1.85255 0.6764 -2.05747)
(-1.62734 0.6764 -2.23984)
(-1.2552 0.6764 -2.46346)
(-0.990818 0.6764 -2.58117)
(-1.12609 0.6764 -2.52924)
(-0.715584 0.6764 -2.6706)
(-0.575624 0.6764 -2.7081)
(-0.144699 0.6764 -2.76102)
(0.144699 0.6764 -2.76102)
(0 0.6764 -2.7686)
(0.715584 0.6764 -2.6706)
(0.575624 0.6764 -2.7081)
(0.990818 0.6764 -2.58117)
(0.855545 0.6764 -2.63309)
(1.12609 0.6764 -2.52924)
(1.73995 0.6764 -2.14866)
(1.62734 0.6764 -2.23984)
(1.95501 0.6764 -1.95501)
(1.85255 0.6764 -2.05747)
(2.14866 0.6764 -1.73995)
(2.05747 0.6764 -1.85255)
(2.23984 0.6764 -1.62734)
(2.46346 0.6764 -1.2552)
(2.58117 0.6764 -0.990818)
(2.52924 0.6764 -1.12609)
(2.6706 0.6764 -0.715584)
(2.7081 0.6764 -0.575624)
(2.76102 0.6764 -0.144699)
(2.76102 0.6764 0.144699)
(2.7686 0.6764 0)
(2.6706 0.6764 0.715584)
(2.7081 0.6764 0.575624)
(2.58117 0.6764 0.990818)
(2.63309 0.6764 0.855545)
(2.52924 0.6764 1.12609)
(2.14866 0.6764 1.73995)
(2.23984 0.6764 1.62734)
(1.95501 0.6764 1.95501)
(2.05747 0.6764 1.85255)
(1.73995 0.6764 2.14866)
(1.85255 0.6764 2.05747)
(1.62734 0.6764 2.23984)
(0.990818 0.6764 2.58117)
(1.12609 0.6764 2.52924)
(0.715584 0.6764 2.6706)
(0.855545 0.6764 2.63309)
(0.575624 0.6764 2.7081)
(0.144699 0.6764 2.76102)
(-0.144699 0.6764 2.76102)
(0 0.6764 2.7686)
(-0.715584 0.6764 2.6706)
(-0.575624 0.6764 2.7081)
(-0.990818 0.6764 2.58117)
(-1.2552 0.6764 2.46346)
(-1.12609 0.6764 2.52924)
(-1.73995 0.6764 2.14866)
(-1.62734 0.6764 2.23984)
(-1.95501 0.6764 1.95501)
(-1.85255 0.6764 2.05747)
(-2.14866 0.6764 1.73995)
(-2.05747 0.6764 1.85255)
(-2.23984 0.6764 1.62734)
(-2.58117 0.6764 0.990818)
(-2.52924 0.6764 1.12609)
(-2.6706 0.6764 0.715584)
(-2.63309 0.6764 0.855545)
(0.432511 0.6764 2.73077)
(0.289397 0.6764 2.75343)
(0.715584 0.6764 2.6706)
(0.575624 0.6764 2.7081)
(0.990818 0.6764 2.58117)
(0.855545 0.6764 2.63309)
(1.2552 0.6764 2.46346)
(1.12609 0.6764 2.52924)
(1.50582 0.6764 2.31876)
(1.3843 0.6764 2.39768)
(1.73995 0.6764 2.14866)
(1.62734 0.6764 2.23984)
(1.95501 0.6764 1.95501)
(1.85255 0.6764 2.05747)
(2.14866 0.6764 1.73995)
(2.05747 0.6764 1.85255)
(2.31876 0.6764 1.50582)
(2.23984 0.6764 1.62734)
(2.46346 0.6764 1.2552)
(2.39768 0.6764 1.3843)
(2.58117 0.6764 0.990818)
(2.52924 0.6764 1.12609)
(2.6706 0.6764 0.715584)
(2.63309 0.6764 0.855545)
(2.73077 0.6764 0.432511)
(2.7081 0.6764 0.575624)
(2.76102 0.6764 0.144699)
(2.75343 0.6764 0.289397)
(2.76102 0.6764 -0.144699)
(2.7686 0.6764 0)
(2.73077 0.6764 -0.432511)
(2.75343 0.6764 -0.289397)
(2.6706 0.6764 -0.715584)
(2.7081 0.6764 -0.575624)
(2.58117 0.6764 -0.990818)
(2.63309 0.6764 -0.855544)
(2.46346 0.6764 -1.2552)
(2.52924 0.6764 -1.12609)
(2.31876 0.6764 -1.50582)
(2.39768 0.6764 -1.3843)
(2.14866 0.6764 -1.73995)
(2.23984 0.6764 -1.62734)
(1.95501 0.6764 -1.95501)
(2.05747 0.6764 -1.85255)
(1.73995 0.6764 -2.14866)
(1.85255 0.6764 -2.05747)
(1.50582 0.6764 -2.31876)
(1.62734 0.6764 -2.23984)
(1.2552 0.6764 -2.46346)
(1.3843 0.6764 -2.39768)
(0.990818 0.6764 -2.58117)
(1.12609 0.6764 -2.52924)
(0.715584 0.6764 -2.6706)
(0.855545 0.6764 -2.63309)
(0.432511 0.6764 -2.73077)
(0.575624 0.6764 -2.7081)
(0.144699 0.6764 -2.76102)
(0.289397 0.6764 -2.75343)
(-0.144699 0.6764 -2.76102)
(0 0.6764 -2.7686)
(-0.432511 0.6764 -2.73077)
(-0.289397 0.6764 -2.75343)
(-0.715584 0.6764 -2.6706)
(-0.575624 0.6764 -2.7081)
(-0.990818 0.6764 -2.58117)
(-0.855544 0.6764 -2.63309)
(-1.2552 0.6764 -2.46346)
(-1.12609 0.6764 -2.52924)
(-1.50582 0.6764 -2.31876)
(-1.3843 0.6764 -2.39768)
(-1.73995 0.6764 -2.14866)
(-1.62734 0.6764 -2.23984)
(-1.95501 0.6764 -1.95501)
(-1.85255 0.6764 -2.05747)
(-2.14866 0.6764 -1.73995)
(-2.05747 0.6764 -1.85255)
(-2.31876 0.6764 -1.50582)
(-2.23984 0.6764 -1.62734)
(-2.46346 0.6764 -1.2552)
(-2.39768 0.6764 -1.3843)
(-2.58117 0.6764 -0.990818)
(-2.52924 0.6764 -1.12609)
(-2.6706 0.6764 -0.715584)
(-2.63309 0.6764 -0.855544)
(-2.73077 0.6764 -0.432511)
(-2.7081 0.6764 -0.575624)
(-2.76102 0.6764 -0.144699)
(-2.75343 0.6764 -0.289397)
(-2.76102 0.6764 0.144699)
(-2.7686 0.6764 0)
(-2.73077 0.6764 0.432511)
(-2.75343 0.6764 0.289397)
(-2.6706 0.6764 0.715584)
(-2.7081 0.6764 0.575624)
(-2.58117 0.6764 0.990818)
(-2.63309 0.6764 0.855545)
(-2.46346 0.6764 1.2552)
(-2.52924 0.6764 1.12609)
(-2.31876 0.6764 1.50582)
(-2.39768 0.6764 1.3843)
(-2.14866 0.6764 1.73995)
(-2.23984 0.6764 1.62734)
(-1.95501 0.6764 1.95501)
(-2.05747 0.6764 1.85255)
(-1.73995 0.6764 2.14866)
(-1.85255 0.6764 2.05747)
(-1.50582 0.6764 2.31876)
(-1.62734 0.6764 2.23984)
(-1.2552 0.6764 2.46346)
(-1.3843 0.6764 2.39768)
(-0.990818 0.6764 2.58117)
(-1.12609 0.6764 2.52924)
(-0.715584 0.6764 2.6706)
(-0.855544 0.6764 2.63309)
(-0.432511 0.6764 2.73077)
(-0.575624 0.6764 2.7081)
(-0.144699 0.6764 2.76102)
(-0.289397 0.6764 2.75343)
(0.144699 0.6764 2.76102)
(0 0.6764 2.7686)
(0.757867 0.6764 2.2909)
(0.817671 0.6764 2.26751)
(0.877474 0.6764 2.24413)
(0.947143 0.6764 2.24412)
(0.510066 0.6764 2.35847)
(0.572016 0.6764 2.34158)
(0.633967 0.6764 2.32469)
(0.703242 0.6764 2.33208)
(0.256486 0.6764 2.39933)
(0.319881 0.6764 2.38912)
(0.383276 0.6764 2.3789)
(0.515435 0.6764 2.3833)
(0.451373 0.6764 2.39362)
(0 0.6764 2.413)
(0.064122 0.6764 2.40958)
(0.128243 0.6764 2.40617)
(0.19439 0.6764 2.42804)
(-0.256486 0.6764 2.39933)
(-0.192365 0.6764 2.40275)
(-0.128243 0.6764 2.40617)
(-0.064797 0.6764 2.43495)
(-0.510066 0.6764 2.35847)
(-0.446671 0.6764 2.36869)
(-0.383276 0.6764 2.3789)
(-0.323248 0.6764 2.41426)
(-0.757867 0.6764 2.2909)
(-0.695917 0.6764 2.30779)
(-0.633967 0.6764 2.32469)
(-0.515435 0.6764 2.3833)
(-0.578038 0.6764 2.36623)
(-0.997081 0.6764 2.19736)
(-0.937278 0.6764 2.22074)
(-0.877474 0.6764 2.24413)
(-0.826278 0.6764 2.29138)
(-1.225 0.6764 2.07893)
(-1.16802 0.6764 2.10854)
(-1.11104 0.6764 2.13815)
(-1.06516 0.6764 2.19057)
(-1.43903 0.6764 1.93694)
(-1.38552 0.6764 1.97244)
(-1.33202 0.6764 2.00794)
(-1.23789 0.6764 2.10081)
(-1.29197 0.6764 2.06494)
(-1.63677 0.6764 1.77301)
(-1.58733 0.6764 1.81399)
(-1.5379 0.6764 1.85498)
(-1.50413 0.6764 1.91592)
(-1.81595 0.6764 1.58899)
(-1.77116 0.6764 1.63499)
(-1.72636 0.6764 1.681)
(-1.69926 0.6764 1.74518)
(-1.97456 0.6764 1.38696)
(-1.93491 0.6764 1.43747)
(-1.89526 0.6764 1.48798)
(-1.87514 0.6764 1.55468)
(-2.1108 0.6764 1.16922)
(-2.07674 0.6764 1.22366)
(-2.04268 0.6764 1.27809)
(-2.02977 0.6764 1.34655)
(-2.22313 0.6764 0.938233)
(-2.19504 0.6764 0.99598)
(-2.16696 0.6764 1.05373)
(-2.1614 0.6764 1.12317)
(-2.31026 0.6764 0.696614)
(-2.28848 0.6764 0.757019)
(-2.26669 0.6764 0.817423)
(-2.26854 0.6764 0.887068)
(-2.37122 0.6764 0.447102)
(-2.35598 0.6764 0.50948)
(-2.34074 0.6764 0.571858)
(-2.34998 0.6764 0.640912)
(-2.40531 0.6764 0.192524)
(-2.39678 0.6764 0.256168)
(-2.38826 0.6764 0.319813)
(-2.40479 0.6764 0.387494)
(-2.41215 0.6764 -0.064235)
(-2.41044 0.6764 -4.5e-05)
(-2.40873 0.6764 0.064144)
(-2.43235 0.6764 0.129685)
(-2.39165 0.6764 -0.320267)
(-2.39677 0.6764 -0.256259)
(-2.4019 0.6764 -0.192251)
(-2.43236 0.6764 -0.129593)
(-2.34406 0.6764 -0.572669)
(-2.35596 0.6764 -0.509569)
(-2.36786 0.6764 -0.446468)
(-2.4048 0.6764 -0.387403)
(-2.26991 0.6764 -0.818583)
(-2.28845 0.6764 -0.757105)
(-2.30699 0.6764 -0.695626)
(-2.35 0.6764 -0.640823)
(-2.17004 0.6764 -1.05522)
(-2.19501 0.6764 -0.996063)
(-2.21997 0.6764 -0.936903)
(-2.26857 0.6764 -0.886983)
(-2.24334 0.6764 -0.946765)
(-2.04558 0.6764 -1.27991)
(-2.0767 0.6764 -1.22374)
(-2.10781 0.6764 -1.16756)
(-2.16144 0.6764 -1.12309)
(-1.89795 0.6764 -1.49009)
(-1.93486 0.6764 -1.43754)
(-1.97177 0.6764 -1.385)
(-2.02982 0.6764 -1.34648)
(-1.99252 0.6764 -1.39958)
(-1.72881 0.6764 -1.68338)
(-1.7711 0.6764 -1.63506)
(-1.81338 0.6764 -1.58674)
(-1.8752 0.6764 -1.55461)
(-1.54008 0.6764 -1.85761)
(-1.58726 0.6764 -1.81405)
(-1.63445 0.6764 -1.7705)
(-1.69933 0.6764 -1.74512)
(-1.33391 0.6764 -2.01079)
(-1.38545 0.6764 -1.97249)
(-1.437 0.6764 -1.9342)
(-1.55629 0.6764 -1.87716)
(-1.50421 0.6764 -1.91586)
(-1.11262 0.6764 -2.14118)
(-1.16794 0.6764 -2.10858)
(-1.22326 0.6764 -2.07598)
(-1.29204 0.6764 -2.06489)
(-0.878719 0.6764 -2.24731)
(-0.937194 0.6764 -2.22078)
(-0.995668 0.6764 -2.19425)
(-1.06524 0.6764 -2.19053)
(-0.634866 0.6764 -2.32798)
(-0.69583 0.6764 -2.30782)
(-0.756793 0.6764 -2.28765)
(-0.826364 0.6764 -2.29135)
(-0.38382 0.6764 -2.38228)
(-0.446582 0.6764 -2.3687)
(-0.509343 0.6764 -2.35513)
(-0.578127 0.6764 -2.36621)
(-0.128425 0.6764 -2.40958)
(-0.192274 0.6764 -2.40275)
(-0.256123 0.6764 -2.39593)
(-0.323339 0.6764 -2.41425)
(0.128425 0.6764 -2.40958)
(0.064213 0.6764 -2.40958)
(0 0.6764 -2.40958)
(-0.064888 0.6764 -2.43494)
(0.38382 0.6764 -2.38228)
(0.319972 0.6764 -2.3891)
(0.256123 0.6764 -2.39593)
(0.194298 0.6764 -2.42805)
(0.634866 0.6764 -2.32798)
(0.572105 0.6764 -2.34156)
(0.509343 0.6764 -2.35513)
(0.451283 0.6764 -2.39364)
(0.878719 0.6764 -2.24731)
(0.817756 0.6764 -2.26748)
(0.756793 0.6764 -2.28765)
(0.703154 0.6764 -2.33211)
(1.11262 0.6764 -2.14118)
(1.05414 0.6764 -2.16771)
(0.995668 0.6764 -2.19425)
(0.947059 0.6764 -2.24416)
(1.33391 0.6764 -2.01079)
(1.27858 0.6764 -2.04338)
(1.22326 0.6764 -2.07598)
(1.12433 0.6764 -2.16372)
(1.18023 0.6764 -2.13078)
(1.54008 0.6764 -1.85761)
(1.48854 0.6764 -1.8959)
(1.437 0.6764 -1.9342)
(1.40003 0.6764 -1.99325)
(1.72881 0.6764 -1.68338)
(1.68163 0.6764 -1.72694)
(1.63445 0.6764 -1.7705)
(1.55629 0.6764 -1.87716)
(1.60397 0.6764 -1.83315)
(1.89795 0.6764 -1.49009)
(1.85566 0.6764 -1.53841)
(1.81338 0.6764 -1.58674)
(1.78974 0.6764 -1.65227)
(2.04558 0.6764 -1.27991)
(2.00868 0.6764 -1.33245)
(1.97177 0.6764 -1.385)
(1.95522 0.6764 -1.45267)
(1.99252 0.6764 -1.39958)
(2.17004 0.6764 -1.05522)
(2.13893 0.6764 -1.11139)
(2.10781 0.6764 -1.16756)
(2.09856 0.6764 -1.23662)
(2.26991 0.6764 -0.818583)
(2.24494 0.6764 -0.877743)
(2.21997 0.6764 -0.936903)
(2.21811 0.6764 -1.00655)
(2.24334 0.6764 -0.946765)
(2.34406 0.6764 -0.572669)
(2.32552 0.6764 -0.634148)
(2.30699 0.6764 -0.695626)
(2.31254 0.6764 -0.765074)
(2.39165 0.6764 -0.320267)
(2.37975 0.6764 -0.383367)
(2.36786 0.6764 -0.446468)
(2.38076 0.6764 -0.514933)
(2.41215 0.6764 -0.064235)
(2.40702 0.6764 -0.128243)
(2.4019 0.6764 -0.192251)
(2.422 0.6764 -0.258956)
(2.40531 0.6764 0.192524)
(2.40702 0.6764 0.128334)
(2.40873 0.6764 0.064144)
(2.43581 0.6764 -4.6e-05)
(2.37122 0.6764 0.447102)
(2.37974 0.6764 0.383457)
(2.38826 0.6764 0.319813)
(2.42201 0.6764 0.258865)
(2.31026 0.6764 0.696614)
(2.3255 0.6764 0.634236)
(2.34074 0.6764 0.571858)
(2.38078 0.6764 0.514843)
(2.36538 0.6764 0.577877)
(2.22313 0.6764 0.938233)
(2.24491 0.6764 0.877828)
(2.26669 0.6764 0.817423)
(2.31257 0.6764 0.764987)
(2.1108 0.6764 1.16922)
(2.13888 0.6764 1.11147)
(2.16696 0.6764 1.05373)
(2.21815 0.6764 1.00646)
(1.97456 0.6764 1.38696)
(2.00862 0.6764 1.33253)
(2.04268 0.6764 1.27809)
(2.0986 0.6764 1.23654)
(1.81595 0.6764 1.58899)
(1.85561 0.6764 1.53848)
(1.89526 0.6764 1.48798)
(1.95528 0.6764 1.4526)
(1.63677 0.6764 1.77301)
(1.68156 0.6764 1.727)
(1.72636 0.6764 1.681)
(1.7898 0.6764 1.6522)
(1.43903 0.6764 1.93694)
(1.48847 0.6764 1.89596)
(1.5379 0.6764 1.85498)
(1.60404 0.6764 1.83309)
(1.225 0.6764 2.07893)
(1.27851 0.6764 2.04343)
(1.33202 0.6764 2.00794)
(1.40011 0.6764 1.9932)
(0.997081 0.6764 2.19736)
(1.05406 0.6764 2.16775)
(1.11104 0.6764 2.13815)
(1.23789 0.6764 2.10081)
(1.18031 0.6764 2.13073)
(-0.19439 0.6764 2.42804)
(-0.515435 0.6764 2.3833)
(-0.451373 0.6764 2.39362)
(-0.387311 0.6764 2.40394)
(-0.765845 0.6764 2.31501)
(-0.703242 0.6764 2.33208)
(-0.64064 0.6764 2.34916)
(-1.00758 0.6764 2.22049)
(-0.947144 0.6764 2.24412)
(-0.886711 0.6764 2.26775)
(-1.23789 0.6764 2.10081)
(-1.18031 0.6764 2.13073)
(-1.12273 0.6764 2.16065)
(-1.45418 0.6764 1.95733)
(-1.40011 0.6764 1.9932)
(-1.34604 0.6764 2.02907)
(-1.654 0.6764 1.79167)
(-1.60404 0.6764 1.83309)
(-1.55409 0.6764 1.8745)
(-1.83507 0.6764 1.60571)
(-1.7898 0.6764 1.6522)
(-1.74453 0.6764 1.69869)
(-1.99535 0.6764 1.40156)
(-1.95528 0.6764 1.4526)
(-1.91521 0.6764 1.50364)
(-2.13302 0.6764 1.18153)
(-2.0986 0.6764 1.23654)
(-2.06419 0.6764 1.29154)
(-2.24653 0.6764 0.948109)
(-2.21815 0.6764 1.00646)
(-2.18978 0.6764 1.06482)
(-2.33458 0.6764 0.703947)
(-2.31257 0.6764 0.764987)
(-2.29055 0.6764 0.826028)
(-2.39618 0.6764 0.451808)
(-2.38078 0.6764 0.514843)
(-2.36538 0.6764 0.577877)
(-2.43063 0.6764 0.194551)
(-2.42201 0.6764 0.258865)
(-2.4134 0.6764 0.323179)
(-2.43754 0.6764 -0.064911)
(-2.43581 0.6764 -4.6e-05)
(-2.43408 0.6764 0.06482)
(-2.41683 0.6764 -0.323638)
(-2.422 0.6764 -0.258956)
(-2.42718 0.6764 -0.194275)
(-2.36874 0.6764 -0.578697)
(-2.38076 0.6764 -0.514933)
(-2.39278 0.6764 -0.451168)
(-2.2938 0.6764 -0.8272)
(-2.31254 0.6764 -0.765074)
(-2.33127 0.6764 -0.702949)
(-2.19288 0.6764 -1.06633)
(-2.21811 0.6764 -1.00655)
(-2.24334 0.6764 -0.946765)
(-2.06712 0.6764 -1.29338)
(-2.09856 0.6764 -1.23662)
(-2.13 0.6764 -1.17985)
(-1.91793 0.6764 -1.50577)
(-1.95522 0.6764 -1.45267)
(-1.99252 0.6764 -1.39958)
(-1.74701 0.6764 -1.70111)
(-1.78974 0.6764 -1.65227)
(-1.83247 0.6764 -1.60344)
(-1.55629 0.6764 -1.87716)
(-1.60397 0.6764 -1.83315)
(-1.65165 0.6764 -1.78913)
(-1.34795 0.6764 -2.03195)
(-1.40003 0.6764 -1.99325)
(-1.45212 0.6764 -1.95456)
(-1.12433 0.6764 -2.16372)
(-1.18023 0.6764 -2.13078)
(-1.23614 0.6764 -2.09784)
(-0.887969 0.6764 -2.27097)
(-0.947059 0.6764 -2.24416)
(-1.00615 0.6764 -2.21734)
(-0.641549 0.6764 -2.35249)
(-0.703154 0.6764 -2.33211)
(-0.764759 0.6764 -2.31173)
(-0.38786 0.6764 -2.40735)
(-0.451283 0.6764 -2.39364)
(-0.514705 0.6764 -2.37992)
(-0.129777 0.6764 -2.43494)
(-0.194298 0.6764 -2.42805)
(-0.258819 0.6764 -2.42115)
(0.129777 0.6764 -2.43494)
(0.064888 0.6764 -2.43494)
(0 0.6764 -2.43494)
(0.38786 0.6764 -2.40735)
(0.323339 0.6764 -2.41425)
(0.258819 0.6764 -2.42115)
(0.641549 0.6764 -2.35249)
(0.578127 0.6764 -2.36621)
(0.514705 0.6764 -2.37992)
(0.887969 0.6764 -2.27097)
(0.826364 0.6764 -2.29135)
(0.764759 0.6764 -2.31173)
(1.12433 0.6764 -2.16372)
(1.06524 0.6764 -2.19053)
(1.00615 0.6764 -2.21734)
(1.34795 0.6764 -2.03195)
(1.29204 0.6764 -2.06489)
(1.23614 0.6764 -2.09784)
(1.55629 0.6764 -1.87716)
(1.50421 0.6764 -1.91586)
(1.45212 0.6764 -1.95456)
(1.74701 0.6764 -1.70111)
(1.69933 0.6764 -1.74512)
(1.65165 0.6764 -1.78913)
(1.91793 0.6764 -1.50577)
(1.8752 0.6764 -1.55461)
(1.83247 0.6764 -1.60344)
(2.06711 0.6764 -1.29338)
(2.02982 0.6764 -1.34648)
(1.99252 0.6764 -1.39958)
(2.19288 0.6764 -1.06633)
(2.16144 0.6764 -1.12309)
(2.13 0.6764 -1.17985)
(2.2938 0.6764 -0.8272)
(2.26857 0.6764 -0.886983)
(2.24334 0.6764 -0.946765)
(2.36874 0.6764 -0.578697)
(2.35 0.6764 -0.640823)
(2.33127 0.6764 -0.702949)
(2.41683 0.6764 -0.323638)
(2.4048 0.6764 -0.387403)
(2.39278 0.6764 -0.451168)
(2.43754 0.6764 -0.064911)
(2.43236 0.6764 -0.129593)
(2.42718 0.6764 -0.194275)
(2.43063 0.6764 0.194551)
(2.43235 0.6764 0.129685)
(2.43408 0.6764 0.06482)
(2.39618 0.6764 0.451808)
(2.40479 0.6764 0.387494)
(2.4134 0.6764 0.323179)
(2.33458 0.6764 0.703947)
(2.34998 0.6764 0.640912)
(2.36538 0.6764 0.577877)
(2.24653 0.6764 0.948109)
(2.26854 0.6764 0.887068)
(2.29055 0.6764 0.826028)
(2.13302 0.6764 1.18153)
(2.1614 0.6764 1.12317)
(2.18978 0.6764 1.06482)
(1.99535 0.6764 1.40156)
(2.02977 0.6764 1.34655)
(2.06419 0.6764 1.29154)
(1.83507 0.6764 1.60571)
(1.87514 0.6764 1.55468)
(1.91521 0.6764 1.50364)
(1.654 0.6764 1.79167)
(1.69926 0.6764 1.74518)
(1.74453 0.6764 1.69869)
(1.45418 0.6764 1.95733)
(1.50413 0.6764 1.91592)
(1.55409 0.6764 1.8745)
(1.23789 0.6764 2.10081)
(1.29197 0.6764 2.06494)
(1.34604 0.6764 2.02907)
(1.00758 0.6764 2.22049)
(1.06516 0.6764 2.19057)
(1.12273 0.6764 2.16065)
(0.765845 0.6764 2.31501)
(0.826278 0.6764 2.29138)
(0.886711 0.6764 2.26775)
(0.515435 0.6764 2.3833)
(0.578038 0.6764 2.36623)
(0.64064 0.6764 2.34916)
(0.259186 0.6764 2.42459)
(0.323248 0.6764 2.41426)
(0.387311 0.6764 2.40394)
(0.064797 0.6764 2.43495)
(0.129593 0.6764 2.43149)
(0.192365 0.6764 2.40275)
(0.510066 0.6764 2.35847)
(0.446671 0.6764 2.36869)
(0.383276 0.6764 2.3789)
(0.757867 0.6764 2.2909)
(0.695917 0.6764 2.30779)
(0.633967 0.6764 2.32469)
(0.997081 0.6764 2.19736)
(0.937278 0.6764 2.22074)
(0.877474 0.6764 2.24413)
(1.225 0.6764 2.07893)
(1.16802 0.6764 2.10854)
(1.11104 0.6764 2.13815)
(1.43903 0.6764 1.93694)
(1.38552 0.6764 1.97244)
(1.33202 0.6764 2.00794)
(1.63677 0.6764 1.77301)
(1.58733 0.6764 1.81399)
(1.5379 0.6764 1.85498)
(1.81595 0.6764 1.58899)
(1.77116 0.6764 1.63499)
(1.72636 0.6764 1.681)
(1.97456 0.6764 1.38696)
(1.93491 0.6764 1.43747)
(1.89526 0.6764 1.48798)
(2.1108 0.6764 1.16922)
(2.07674 0.6764 1.22366)
(2.04268 0.6764 1.27809)
(2.22313 0.6764 0.938233)
(2.19504 0.6764 0.99598)
(2.16696 0.6764 1.05373)
(2.31026 0.6764 0.696614)
(2.28848 0.6764 0.757019)
(2.26669 0.6764 0.817423)
(2.37122 0.6764 0.447102)
(2.35598 0.6764 0.50948)
(2.34074 0.6764 0.571858)
(2.40531 0.6764 0.192524)
(2.39678 0.6764 0.256168)
(2.38826 0.6764 0.319813)
(2.41215 0.6764 -0.064235)
(2.41044 0.6764 -4.5e-05)
(2.40873 0.6764 0.064144)
(2.39165 0.6764 -0.320267)
(2.39677 0.6764 -0.256259)
(2.4019 0.6764 -0.192251)
(2.34406 0.6764 -0.572669)
(2.35596 0.6764 -0.509569)
(2.36786 0.6764 -0.446468)
(2.26991 0.6764 -0.818583)
(2.28845 0.6764 -0.757105)
(2.30699 0.6764 -0.695626)
(2.17004 0.6764 -1.05522)
(2.19501 0.6764 -0.996063)
(2.21997 0.6764 -0.936903)
(2.04558 0.6764 -1.27991)
(2.0767 0.6764 -1.22374)
(2.10781 0.6764 -1.16756)
(1.89795 0.6764 -1.49009)
(1.93486 0.6764 -1.43754)
(1.97177 0.6764 -1.385)
(1.72881 0.6764 -1.68338)
(1.7711 0.6764 -1.63506)
(1.81338 0.6764 -1.58674)
(1.54008 0.6764 -1.85761)
(1.58726 0.6764 -1.81405)
(1.63445 0.6764 -1.7705)
(1.33391 0.6764 -2.01079)
(1.38545 0.6764 -1.97249)
(1.437 0.6764 -1.9342)
(1.11262 0.6764 -2.14118)
(1.16794 0.6764 -2.10858)
(1.22326 0.6764 -2.07598)
(0.878719 0.6764 -2.24731)
(0.937194 0.6764 -2.22078)
(0.995668 0.6764 -2.19425)
(0.634866 0.6764 -2.32798)
(0.69583 0.6764 -2.30782)
(0.756793 0.6764 -2.28765)
(0.38382 0.6764 -2.38228)
(0.446582 0.6764 -2.3687)
(0.509343 0.6764 -2.35513)
(0.128425 0.6764 -2.40958)
(0.192274 0.6764 -2.40275)
(0.256123 0.6764 -2.39593)
(-0.128425 0.6764 -2.40958)
(-0.064213 0.6764 -2.40958)
(0 0.6764 -2.40958)
(-0.38382 0.6764 -2.38228)
(-0.319972 0.6764 -2.3891)
(-0.256123 0.6764 -2.39593)
(-0.634866 0.6764 -2.32798)
(-0.572105 0.6764 -2.34156)
(-0.509343 0.6764 -2.35513)
(-0.878719 0.6764 -2.24731)
(-0.817756 0.6764 -2.26748)
(-0.756793 0.6764 -2.28765)
(-1.11262 0.6764 -2.14118)
(-1.05414 0.6764 -2.16771)
(-0.995668 0.6764 -2.19425)
(-1.33391 0.6764 -2.01079)
(-1.27858 0.6764 -2.04338)
(-1.22326 0.6764 -2.07598)
(-1.54008 0.6764 -1.85761)
(-1.48854 0.6764 -1.8959)
(-1.437 0.6764 -1.9342)
(-1.72881 0.6764 -1.68338)
(-1.68163 0.6764 -1.72694)
(-1.63445 0.6764 -1.7705)
(-1.89795 0.6764 -1.49009)
(-1.85566 0.6764 -1.53841)
(-1.81338 0.6764 -1.58674)
(-2.04558 0.6764 -1.27991)
(-2.00868 0.6764 -1.33245)
(-1.97177 0.6764 -1.385)
(-2.17004 0.6764 -1.05522)
(-2.13893 0.6764 -1.11139)
(-2.10781 0.6764 -1.16756)
(-2.26991 0.6764 -0.818583)
(-2.24494 0.6764 -0.877743)
(-2.21997 0.6764 -0.936903)
(-2.34406 0.6764 -0.572669)
(-2.32552 0.6764 -0.634148)
(-2.30699 0.6764 -0.695626)
(-2.39165 0.6764 -0.320267)
(-2.37975 0.6764 -0.383367)
(-2.36786 0.6764 -0.446468)
(-2.41215 0.6764 -0.064235)
(-2.40702 0.6764 -0.128243)
(-2.4019 0.6764 -0.192251)
(-2.40531 0.6764 0.192524)
(-2.40702 0.6764 0.128334)
(-2.40873 0.6764 0.064144)
(-2.37122 0.6764 0.447102)
(-2.37974 0.6764 0.383457)
(-2.38826 0.6764 0.319813)
(-2.31026 0.6764 0.696614)
(-2.3255 0.6764 0.634236)
(-2.34074 0.6764 0.571858)
(-2.22313 0.6764 0.938233)
(-2.24491 0.6764 0.877828)
(-2.26669 0.6764 0.817423)
(-2.1108 0.6764 1.16922)
(-2.13888 0.6764 1.11147)
(-2.16696 0.6764 1.05373)
(-1.97456 0.6764 1.38696)
(-2.00862 0.6764 1.33253)
(-2.04268 0.6764 1.27809)
(-1.81595 0.6764 1.58899)
(-1.85561 0.6764 1.53848)
(-1.89526 0.6764 1.48798)
(-1.63677 0.6764 1.77301)
(-1.68156 0.6764 1.727)
(-1.72636 0.6764 1.681)
(-1.43903 0.6764 1.93694)
(-1.48847 0.6764 1.89596)
(-1.5379 0.6764 1.85498)
(-1.225 0.6764 2.07893)
(-1.27851 0.6764 2.04343)
(-1.33202 0.6764 2.00794)
(-0.997081 0.6764 2.19736)
(-1.05406 0.6764 2.16775)
(-1.11104 0.6764 2.13815)
(-0.757867 0.6764 2.2909)
(-0.817671 0.6764 2.26751)
(-0.877474 0.6764 2.24413)
(-0.510066 0.6764 2.35847)
(-0.572016 0.6764 2.34158)
(-0.633967 0.6764 2.32469)
(-0.256486 0.6764 2.39933)
(-0.319881 0.6764 2.38912)
(-0.383276 0.6764 2.3789)
(-0.064122 0.6764 2.40958)
(-0.128243 0.6764 2.40617)
(0.218688 0.6764 2.73154)
(0.579865 0.6764 2.68121)
(0.507795 0.6764 2.69282)
(0.435724 0.6764 2.70444)
(0.861575 0.6764 2.60439)
(0.791148 0.6764 2.62359)
(0.72072 0.6764 2.6428)
(1.13352 0.6764 2.49805)
(1.06554 0.6764 2.52464)
(0.997549 0.6764 2.55122)
(1.39263 0.6764 2.36341)
(1.32785 0.6764 2.39708)
(1.26308 0.6764 2.43073)
(1.63596 0.6764 2.202)
(1.57512 0.6764 2.24235)
(1.51429 0.6764 2.28271)
(1.86075 0.6764 2.01563)
(1.80455 0.6764 2.06222)
(1.74835 0.6764 2.10881)
(2.06445 0.6764 1.80643)
(2.01353 0.6764 1.85873)
(1.9626 0.6764 1.91103)
(2.24477 0.6764 1.57676)
(2.19969 0.6764 1.63417)
(2.15461 0.6764 1.69159)
(2.39965 0.6764 1.32922)
(2.36093 0.6764 1.3911)
(2.32221 0.6764 1.45299)
(2.52734 0.6764 1.06662)
(2.49542 0.6764 1.13227)
(2.4635 0.6764 1.19792)
(2.6264 0.6764 0.79194)
(2.60164 0.6764 0.86061)
(2.57687 0.6764 0.929281)
(2.6957 0.6764 0.508284)
(2.67837 0.6764 0.579198)
(2.66105 0.6764 0.650112)
(2.73446 0.6764 0.218869)
(2.72477 0.6764 0.291223)
(2.71508 0.6764 0.363577)
(2.74223 0.6764 -0.073025)
(2.74029 0.6764 -5.2e-05)
(2.73834 0.6764 0.072922)
(2.71893 0.6764 -0.364093)
(2.72476 0.6764 -0.291326)
(2.73058 0.6764 -0.218559)
(2.66483 0.6764 -0.651035)
(2.67835 0.6764 -0.579299)
(2.69188 0.6764 -0.507564)
(2.58053 0.6764 -0.9306)
(2.6016 0.6764 -0.860709)
(2.62268 0.6764 -0.790817)
(2.46699 0.6764 -1.19962)
(2.49538 0.6764 -1.13237)
(2.52376 0.6764 -1.06511)
(2.32551 0.6764 -1.45505)
(2.36088 0.6764 -1.39119)
(2.39625 0.6764 -1.32734)
(2.15767 0.6764 -1.69399)
(2.19963 0.6764 -1.63426)
(2.24159 0.6764 -1.57452)
(1.96538 0.6764 -1.91374)
(2.01345 0.6764 -1.85881)
(2.06153 0.6764 -1.80387)
(1.75083 0.6764 -2.11181)
(1.80447 0.6764 -2.06229)
(1.85811 0.6764 -2.01278)
(1.51644 0.6764 -2.28595)
(1.57504 0.6764 -2.24241)
(1.63364 0.6764 -2.19888)
(1.26487 0.6764 -2.43418)
(1.32776 0.6764 -2.39712)
(1.39065 0.6764 -2.36007)
(0.998965 0.6764 -2.55484)
(1.06544 0.6764 -2.52468)
(1.13192 0.6764 -2.49451)
(0.721743 0.6764 -2.64655)
(0.791048 0.6764 -2.62362)
(0.860354 0.6764 -2.6007)
(0.436343 0.6764 -2.70827)
(0.507693 0.6764 -2.69284)
(0.579043 0.6764 -2.67741)
(0.145999 0.6764 -2.73931)
(0.218585 0.6764 -2.73155)
(0.291171 0.6764 -2.72379)
(-0.145999 0.6764 -2.73931)
(-0.072999 0.6764 -2.73931)
(0 0.6764 -2.73931)
(-0.436343 0.6764 -2.70827)
(-0.363757 0.6764 -2.71603)
(-0.291171 0.6764 -2.72379)
(-0.721743 0.6764 -2.64655)
(-0.650393 0.6764 -2.66198)
(-0.579043 0.6764 -2.67741)
(-0.998965 0.6764 -2.55484)
(-0.92966 0.6764 -2.57777)
(-0.860354 0.6764 -2.6007)
(-1.26487 0.6764 -2.43418)
(-1.19839 0.6764 -2.46435)
(-1.13192 0.6764 -2.49451)
(-1.51644 0.6764 -2.28595)
(-1.45355 0.6764 -2.32301)
(-1.39065 0.6764 -2.36007)
(-1.75083 0.6764 -2.11181)
(-1.69223 0.6764 -2.15534)
(-1.63364 0.6764 -2.19888)
(-1.96538 0.6764 -1.91374)
(-1.91175 0.6764 -1.96326)
(-1.85811 0.6764 -2.01278)
(-2.15767 0.6764 -1.69399)
(-2.1096 0.6764 -1.74893)
(-2.06153 0.6764 -1.80387)
(-2.32551 0.6764 -1.45505)
(-2.28355 0.6764 -1.51479)
(-2.24159 0.6764 -1.57452)
(-2.46699 0.6764 -1.19962)
(-2.43162 0.6764 -1.26348)
(-2.39625 0.6764 -1.32734)
(-2.58053 0.6764 -0.9306)
(-2.55214 0.6764 -0.997855)
(-2.52376 0.6764 -1.06511)
(-2.66483 0.6764 -0.651035)
(-2.64375 0.6764 -0.720926)
(-2.62268 0.6764 -0.790817)
(-2.71893 0.6764 -0.364093)
(-2.7054 0.6764 -0.435828)
(-2.69188 0.6764 -0.507564)
(-2.74223 0.6764 -0.073025)
(-2.7364 0.6764 -0.145792)
(-2.73058 0.6764 -0.218559)
(-2.73446 0.6764 0.218869)
(-2.7364 0.6764 0.145896)
(-2.73834 0.6764 0.072922)
(-2.6957 0.6764 0.508284)
(-2.70539 0.6764 0.43593)
(-2.71508 0.6764 0.363577)
(-2.6264 0.6764 0.79194)
(-2.64372 0.6764 0.721026)
(-2.66105 0.6764 0.650112)
(-2.52734 0.6764 1.06662)
(-2.55211 0.6764 0.997952)
(-2.57687 0.6764 0.929281)
(-2.39965 0.6764 1.32922)
(-2.43157 0.6764 1.26357)
(-2.4635 0.6764 1.19792)
(-2.24477 0.6764 1.57676)
(-2.28349 0.6764 1.51487)
(-2.32221 0.6764 1.45299)
(-2.06445 0.6764 1.80643)
(-2.10953 0.6764 1.74901)
(-2.15461 0.6764 1.69159)
(-1.86075 0.6764 2.01563)
(-1.91167 0.6764 1.96333)
(-1.9626 0.6764 1.91103)
(-1.63596 0.6764 2.202)
(-1.69215 0.6764 2.15541)
(-1.74835 0.6764 2.10881)
(-1.39263 0.6764 2.36341)
(-1.45346 0.6764 2.32306)
(-1.51429 0.6764 2.28271)
(-1.13352 0.6764 2.49805)
(-1.1983 0.6764 2.46439)
(-1.26308 0.6764 2.43073)
(-0.861575 0.6764 2.60439)
(-0.929562 0.6764 2.5778)
(-0.997549 0.6764 2.55122)
(-0.579865 0.6764 2.68121)
(-0.650292 0.6764 2.66201)
(-0.72072 0.6764 2.6428)
(-0.291584 0.6764 2.72766)
(-0.363654 0.6764 2.71605)
(-0.435724 0.6764 2.70444)
(-0.072896 0.6764 2.73931)
(-0.145792 0.6764 2.73543)
(-2.71943 0.6764 0.504068)
(-2.75343 0.6764 0.289397)
(-2.74223 0.6764 -0.073025)
(-2.74028 0.6764 -5.2e-05)
(-2.73834 0.6764 0.072922)
(-2.76481 0.6764 -0.072349)
(-2.71893 0.6764 -0.364093)
(-2.72476 0.6764 -0.291326)
(-2.73058 0.6764 -0.218559)
(-2.75343 0.6764 -0.289397)
(-2.7421 0.6764 -0.360954)
(-2.73077 0.6764 -0.432511)
(-2.66483 0.6764 -0.651035)
(-2.67835 0.6764 -0.579299)
(-2.69188 0.6764 -0.507564)
(-2.68935 0.6764 -0.645604)
(-2.58053 0.6764 -0.9306)
(-2.6016 0.6764 -0.860709)
(-2.62268 0.6764 -0.790817)
(-2.63309 0.6764 -0.855544)
(-2.60713 0.6764 -0.923181)
(-2.46699 0.6764 -1.19962)
(-2.49538 0.6764 -1.13237)
(-2.52376 0.6764 -1.06511)
(-2.49635 0.6764 -1.19064)
(-2.32551 0.6764 -1.45505)
(-2.36088 0.6764 -1.39119)
(-2.39625 0.6764 -1.32734)