/*--------------------------------*- C++ -*----------------------------------*\
| =========                 |                                                 |
| \\      /  F ield         | OpenFOAM: The Open Source CFD Toolbox           |
|  \\    /   O peration     | Version:  v2012                                 |
|   \\  /    A nd           | Website:  www.openfoam.com                      |
|    \\/     M anipulation  |                                                 |
\*---------------------------------------------------------------------------*/
FoamFile
{
    version     2.0;
    format      ascii;
    class       featureEdgeMesh;
    location    "constant/triSurface";
    object      tornadoSimulatorSLMaskR.eMesh;
}
// * * * * * * * * * * * * * * * * * * * * * * * * * * * * * * * * * * * * * //


// points:

7220
(
(-0.043512 4.9 -0.000189)
(-0.087024 4.9 9.99962)
(0 4.9 10)
(-3.80508 4.9 0.298633)
(-4.52827 4.9 -8.91598)
(-4.60569 4.9 -8.87624)
(-1.20633 4.9 -0.147703)
(-2.49701 4.9 9.68323)
(-1.17212 4.9 9.93097)
(-1.12891 4.9 9.93607)
(0 4.9 -10)
(-1.2585 4.9 9.9204)
(-1.21533 4.9 9.92587)
(0 4.9 -10)
(-3.95886 4.9 0.380132)
(-4.83583 4.9 -8.75299)
(-4.91182 4.9 -8.71057)
(-4.22081 4.9 0.535452)
(-5.35974 4.9 -8.44235)
(-5.433 4.9 -8.39538)
(-4.29387 4.9 0.582732)
(-5.433 4.9 -8.39538)
(-4.33009 4.9 0.606847)
(-5.50586 4.9 -8.34779)
(-6.18694 4.9 2.90872)
(-9.29199 4.9 -3.69581)
(-9.3238 4.9 -3.6148)
(-6.54052 4.9 4.82189)
(-9.99915 4.9 0.130533)
(-9.99763 4.9 0.217545)
(-6.53863 4.9 4.9089)
(-9.99763 4.9 0.217545)
(-6.53711 4.9 4.95238)
(-9.99536 4.9 0.30454)
(-1.20633 4.9 -0.147703)
(-2.41265 4.9 9.70459)
(-2.32811 4.9 9.72522)
(-1.12169 4.9 -0.127443)
(-2.32811 4.9 9.72522)
(-1.07925 4.9 -0.117867)
(-2.24339 4.9 9.74511)
(-2.62019 4.9 -0.125508)
(-2.1585 4.9 -9.76427)
(-2.24339 4.9 -9.74511)
(-2.705 4.9 -0.105985)
(-2.24339 4.9 -9.74511)
(-3.93707 4.9 -9.19226)
(-3.97707 4.9 -9.17512)
(-3.08189 4.9 9.51325)
(-3.85693 4.9 -9.22617)
(-3.89707 4.9 -9.20939)
(-3.08189 4.9 9.51325)
(-6.50648 4.9 5.34269)
(-9.93107 4.9 1.17213)
(-9.92049 4.9 1.25851)
(-1.49949 4.9 -0.230145)
(-2.99899 4.9 9.53971)
(-2.91586 4.9 9.56545)
(-1.41625 4.9 -0.20477)
(-2.91586 4.9 9.56545)
(-1.37447 4.9 -0.192627)
(-2.8325 4.9 9.59046)
(-0.780024 4.9 -0.061218)
(-1.56005 4.9 9.87756)
(-1.47403 4.9 9.89077)
(-0.693951 4.9 -0.048391)
(-1.47403 4.9 9.89077)
(-0.650834 4.9 -0.04254)
(-1.3879 4.9 9.90322)
(-0.564455 4.9 -0.031963)
(-1.12891 4.9 9.93607)
(-1.0424 4.9 9.94552)
(-0.477905 4.9 -0.022892)
(-1.0424 4.9 9.94552)
(-0.434575 4.9 -0.018921)
(-0.955811 4.9 9.95422)
(-0.434575 4.9 -0.018921)
(-0.869149 4.9 9.96216)
(-0.782422 4.9 9.96935)
(-0.347818 4.9 -0.012113)
(-0.782422 4.9 9.96935)
(-0.304398 4.9 -0.009274)
(-0.695636 4.9 9.97578)
(-1.62797 4.9 -0.242618)
(-0.174041 4.9 -9.99849)
(-0.261045 4.9 -9.99659)
(-2.44963 4.9 -0.160111)
(-1.81736 4.9 -9.83347)
(-1.90287 4.9 -9.81729)
(-3.68794 4.9 0.241048)
(-4.21523 4.9 -9.06818)
(-3.99686 4.9 0.40134)
(-4.91182 4.9 -8.71057)
(-4.98743 4.9 -8.6675)
(-4.07228 4.9 0.444742)
(-4.98743 4.9 -8.6675)
(-4.10971 4.9 0.466934)
(-5.06267 4.9 -8.62377)
(-5.00658 4.9 1.15255)
(-6.93127 4.9 -7.20816)
(-6.99373 4.9 -7.14757)
(-5.06878 4.9 1.21341)
(-6.99373 4.9 -7.14757)
(-6.42773 4.9 5.81462)
(-9.77357 4.9 2.11599)
(-9.75478 4.9 2.20096)
(-6.40858 4.9 5.89951)
(-9.75478 4.9 2.20096)
(-6.39844 4.9 5.94183)
(-9.73526 4.9 2.28577)
(-1.37447 4.9 -0.192627)
(-2.74894 4.9 9.61475)
(-2.66516 4.9 9.63831)
(-1.29059 4.9 -0.169434)
(-2.66516 4.9 9.63831)
(-1.24851 4.9 -0.158385)
(-2.58119 4.9 9.66113)
(-0.908682 4.9 -0.083263)
(-1.90287 4.9 9.81729)
(-0.304398 4.9 -0.009274)
(-0.608796 4.9 9.98145)
(-0.521912 4.9 9.98637)
(-0.217493 4.9 -0.004732)
(-0.521912 4.9 9.98637)
(-0.174014 4.9 -0.003029)
(-0.434986 4.9 9.99054)
(-0.174014 4.9 -0.003029)
(-0.348028 4.9 9.99394)
(-0.261045 4.9 9.99659)
(-0.08702 4.9 -0.000757)
(-0.261045 4.9 9.99659)
(-0.043512 4.9 -0.000189)
(-0.174041 4.9 9.99849)
(-1.67147 4.9 -0.241671)
(-0.261045 4.9 -9.99659)
(-0.348028 4.9 -9.99394)
(-1.75844 4.9 -0.238642)
(-0.348028 4.9 -9.99394)
(-1.8019 4.9 -0.23656)
(-0.434986 4.9 -9.99053)
(-1.93216 4.9 -0.228047)
(-0.782422 4.9 -9.96934)
(-0.869149 4.9 -9.96216)
(-2.01885 4.9 -0.220483)
(-0.869149 4.9 -9.96216)
(-2.06215 4.9 -0.216136)
(-0.955811 4.9 -9.95422)
(-2.06215 4.9 -0.216136)
(-1.0424 4.9 -9.94552)
(-1.12891 4.9 -9.93607)
(-2.14861 4.9 -0.206312)
(-1.12891 4.9 -9.93607)
(-2.19178 4.9 -0.200835)
(-1.21533 4.9 -9.92587)
(-2.49238 4.9 -0.152018)
(-1.90287 4.9 -9.81729)
(-1.98823 4.9 -9.80035)
(-2.57767 4.9 -0.134715)
(-1.98823 4.9 -9.80035)
(-2.62019 4.9 -0.125508)
(-2.07344 4.9 -9.78268)
(-3.52948 4.9 0.169063)
(-3.97707 4.9 -9.17512)
(-4.05676 4.9 -9.14017)
(-3.60902 4.9 0.204366)
(-4.05676 4.9 -9.14017)
(-3.64856 4.9 0.222536)
(-4.13615 4.9 -9.10452)
(-3.68794 4.9 0.241048)
(-4.29398 4.9 -9.03115)
(-4.37241 4.9 -8.99344)
(-3.7662 4.9 0.279099)
(-4.37241 4.9 -8.99344)
(-3.80508 4.9 0.298633)
(-4.45051 4.9 -8.95505)
(-3.84379 4.9 0.318505)
(-4.60569 4.9 -8.87624)
(-4.68276 4.9 -8.83582)
(-3.92068 4.9 0.359256)
(-4.68276 4.9 -8.83582)
(-3.95886 4.9 0.380132)
(-4.75947 4.9 -8.79474)
(-4.10971 4.9 0.466934)
(-5.13753 4.9 -8.57938)
(-5.21199 4.9 -8.53435)
(-4.18398 4.9 0.51229)
(-5.21199 4.9 -8.53435)
(-4.22081 4.9 0.535452)
(-5.28607 4.9 -8.48867)
(-6.51593 4.9 4.25707)
(-9.94996 4.9 -0.999115)
(-9.95828 4.9 -0.912489)
(-6.53711 4.9 4.95238)
(-9.99233 4.9 0.391511)
(-9.98855 4.9 0.478454)
(-6.53295 4.9 5.0393)
(-9.98855 4.9 0.478454)
(-6.5303 4.9 5.08274)
(-9.98401 4.9 0.565359)
(-6.45368 4.9 5.68669)
(-9.82547 4.9 1.86013)
(-9.80891 4.9 1.94557)
(-6.43675 4.9 5.77205)
(-9.80891 4.9 1.94557)
(-6.42773 4.9 5.81462)
(-9.79161 4.9 2.03085)
(-6.34548 4.9 6.37315)
(-3.247 4.9 9.45817)
(-3.16456 4.9 9.48607)
(-6.26292 4.9 6.40068)
(-3.16456 4.9 9.48607)
(-9.45808 4.9 3.24696)
(-9.44395 4.9 3.28812)
(-3.08189 4.9 9.51325)
(-9.48598 4.9 3.16453)
(-9.47221 4.9 3.20581)
(-3.08189 4.9 9.51325)
(-1.07925 4.9 -0.117867)
(-2.1585 4.9 9.76427)
(-2.07344 4.9 9.78268)
(-0.994115 4.9 -0.099823)
(-2.07344 4.9 9.78268)
(-0.951435 4.9 -0.091357)
(-1.98823 4.9 9.80035)
(-3.04044 4.9 9.52648)
(-2.99899 4.9 9.53971)
(0 4.9 -10)
(-1.58446 4.9 -0.243186)
(0 4.9 -10)
(-1.62797 4.9 -0.242618)
(-0.087024 4.9 -9.99962)
(-1.8019 4.9 -0.23656)
(-0.521912 4.9 -9.98637)
(-0.608796 4.9 -9.98145)
(-1.88876 4.9 -0.231262)
(-0.608796 4.9 -9.98145)
(-1.93216 4.9 -0.228047)
(-0.695636 4.9 -9.97578)
(-2.19178 4.9 -0.200835)
(-1.30167 4.9 -9.91492)
(-1.3879 4.9 -9.90322)
(-2.27796 4.9 -0.188757)
(-1.3879 4.9 -9.90322)
(-2.32097 4.9 -0.182157)
(-1.47403 4.9 -9.89077)
(-2.9572 4.9 -0.038605)
(-2.8325 4.9 -9.59046)
(-2.91586 4.9 -9.56545)
(-3.04044 4.9 -0.01323)
(-2.91586 4.9 -9.56545)
(-3.08189 4.9 0)
(-2.99899 4.9 -9.53971)
(-4.33009 4.9 0.606847)
(-5.57829 4.9 -8.29956)
(-5.65031 4.9 -8.2507)
(-4.40189 4.9 0.656018)
(-5.65031 4.9 -8.2507)
(-4.43747 4.9 0.68107)
(-5.72189 4.9 -8.20121)
(-4.43747 4.9 0.68107)
(-5.79305 4.9 -8.15111)
(-5.86376 4.9 -8.10039)
(-4.50796 4.9 0.732099)
(-5.86376 4.9 -8.10039)
(-4.54287 4.9 0.758071)
(-5.93403 4.9 -8.04905)
(-4.84653 4.9 1.00521)
(-6.61116 4.9 -7.50284)
(-6.6762 4.9 -7.44502)
(-4.91132 4.9 1.0633)
(-6.6762 4.9 -7.44502)
(-6.53711 4.9 4.56087)
(-9.99233 4.9 -0.391511)
(-9.99536 4.9 -0.30454)
(-6.53976 4.9 4.64785)
(-9.99536 4.9 -0.30454)
(-6.54052 4.9 4.69136)
(-9.99763 4.9 -0.217545)
(-6.54052 4.9 4.69136)
(-9.99915 4.9 -0.130533)
(-9.99991 4.9 -0.043512)
(-6.5409 4.9 4.77838)
(-9.99991 4.9 -0.043512)
(-6.54052 4.9 4.82189)
(-9.99991 4.9 0.043512)
(-6.47629 4.9 5.55813)
(-9.88426 4.9 1.51705)
(-0.908682 4.9 -0.083263)
(-1.81736 4.9 9.83347)
(-1.73172 4.9 9.84891)
(-0.822973 4.9 -0.068193)
(-1.73172 4.9 9.84891)
(-0.780024 4.9 -0.061218)
(-1.64595 4.9 9.86361)
(-2.32097 4.9 -0.182157)
(-1.56005 4.9 -9.87756)
(-1.64595 4.9 -9.86361)
(-2.40681 4.9 -0.167833)
(-1.64595 4.9 -9.86361)
(-2.44963 4.9 -0.160111)
(-1.73172 4.9 -9.84892)
(-2.705 4.9 -0.105985)
(-2.32811 4.9 -9.72522)
(-2.41265 4.9 -9.70459)
(-2.78945 4.9 -0.08499)
(-2.41265 4.9 -9.70459)
(-2.83154 4.9 -0.073941)
(-2.49701 4.9 -9.68323)
(-3.08189 4.9 0)
(-3.08189 4.9 -9.51325)
(-3.16456 4.9 -9.48607)
(-3.16444 4.9 0.027539)
(-3.16456 4.9 -9.48607)
(-3.20554 4.9 0.041846)
(-3.247 4.9 -9.45817)
(-3.20554 4.9 0.041846)
(-3.32918 4.9 -9.42956)
(-3.41111 4.9 -9.40023)
(-3.28734 4.9 0.071531)
(-3.41111 4.9 -9.40023)
(-3.32805 4.9 0.086906)
(-3.49279 4.9 -9.37019)
(-4.54287 4.9 0.758071)
(-6.00385 4.9 -7.99711)
(-6.07322 4.9 -7.94456)
(-4.61201 4.9 0.810923)
(-6.07322 4.9 -7.94456)
(-4.64623 4.9 0.837798)
(-6.14213 4.9 -7.8914)
(-4.64623 4.9 0.837798)
(-6.21057 4.9 -7.83765)
(-6.27854 4.9 -7.78331)
(-4.71396 4.9 0.892436)
(-6.27854 4.9 -7.78331)
(-4.74747 4.9 0.920195)
(-6.34603 4.9 -7.72838)
(-4.91132 4.9 1.0633)
(-6.74074 4.9 -7.38664)
(-6.80476 4.9 -7.3277)
(-4.97508 4.9 1.12252)
(-6.80476 4.9 -7.3277)
(-5.00658 4.9 1.15255)
(-6.86827 4.9 -7.2682)
(-5.06878 4.9 1.21341)
(-7.05567 4.9 -7.08643)
(-7.11707 4.9 -7.02477)
(-5.12991 4.9 1.27534)
(-7.11707 4.9 -7.02477)
(-5.16007 4.9 1.30671)
(-7.17793 4.9 -6.96256)
(-7.99703 4.9 -6.0038)
(-8.02316 4.9 -5.969)
(-3.08189 4.9 9.51325)
(-7.94448 4.9 -6.07316)
(-7.97091 4.9 -6.03859)
(-3.08189 4.9 9.51325)
(-5.62907 4.9 1.87786)
(-8.17624 4.9 -5.75753)
(-8.22603 4.9 -5.68616)
(-5.67855 4.9 1.94945)
(-8.22603 4.9 -5.68616)
(-5.70282 4.9 1.98556)
(-8.27521 4.9 -5.61435)
(-5.70282 4.9 1.98556)
(-8.32375 4.9 -5.54213)
(-8.37167 4.9 -5.46948)
(-5.75042 4.9 2.05841)
(-8.37167 4.9 -5.46948)
(-5.77374 4.9 2.09515)
(-8.41895 4.9 -5.39642)
(-6.24844 4.9 3.07154)
(-9.41498 4.9 -3.37018)
(-9.44395 4.9 -3.28812)
(-6.27705 4.9 3.15372)
(-9.44395 4.9 -3.28812)
(-6.29082 4.9 3.195)
(-9.47221 4.9 -3.20581)
(-6.37708 4.9 3.48706)
(-9.64981 4.9 -2.6232)
(-6.37708 4.9 3.48706)
(-9.67227 4.9 -2.53912)
(-9.694 4.9 -2.45485)
(-6.39844 4.9 3.57142)
(-9.694 4.9 -2.45485)
(-6.40858 4.9 3.61374)
(-9.715 4.9 -2.3704)
(-6.5303 4.9 5.08274)
(-9.97871 4.9 0.652222)
(-9.97265 4.9 0.739036)
(-6.52387 4.9 5.16952)
(-9.97265 4.9 0.739036)
(-6.52009 4.9 5.21287)
(-9.96584 4.9 0.825793)
(-6.52009 4.9 5.21287)
(-9.95828 4.9 0.912489)
(-9.94996 4.9 0.999115)
(-6.51139 4.9 5.29946)
(-9.94996 4.9 0.999115)
(-6.50648 4.9 5.34269)
(-9.94089 4.9 1.08567)
(-6.50119 4.9 5.38588)
(-9.92049 4.9 1.25851)
(-9.90916 4.9 1.3448)
(-6.48949 4.9 5.47211)
(-9.90916 4.9 1.3448)
(-6.48308 4.9 5.51515)
(-9.89709 4.9 1.43098)
(-6.47629 4.9 5.55813)
(-9.87068 4.9 1.60301)
(-9.85636 4.9 1.68885)
(-6.46159 4.9 5.64391)
(-9.85636 4.9 1.68885)
(-6.45368 4.9 5.68669)
(-9.84129 4.9 1.77456)
(-6.39844 4.9 5.94183)
(-9.715 4.9 2.3704)
(-9.694 4.9 2.45485)
(-6.37708 4.9 6.02619)
(-9.694 4.9 2.45485)
(-6.36585 4.9 6.06822)
(-9.67227 4.9 2.53912)
(-6.36585 4.9 6.06822)
(-9.64981 4.9 2.6232)
(-9.62662 4.9 2.70708)
(-6.34229 4.9 6.152)
(-9.62662 4.9 2.70708)
(-6.32997 4.9 6.19373)
(-9.60269 4.9 2.79075)
(-6.32997 4.9 6.19373)
(-9.57804 4.9 2.87421)
(-9.55267 4.9 2.95745)
(-6.30423 4.9 6.27686)
(-9.55267 4.9 2.95745)
(-6.29082 4.9 6.31825)
(-9.52657 4.9 3.04047)
(-2.83154 4.9 -0.073941)
(-2.58119 4.9 -9.66113)
(-2.66516 4.9 -9.63831)
(-2.91541 4.9 -0.050748)
(-2.66516 4.9 -9.63831)
(-2.9572 4.9 -0.038605)
(-2.74894 4.9 -9.61475)
(-3.32805 4.9 0.086906)
(-3.5742 4.9 -9.33944)
(-3.65534 4.9 -9.30798)
(-3.40905 4.9 0.118716)
(-3.65534 4.9 -9.30798)
(-3.44934 4.9 0.135149)
(-3.7362 4.9 -9.27582)
(-4.74747 4.9 0.920195)
(-6.41305 4.9 -7.67286)
(-6.47958 4.9 -7.61676)
(-4.81375 4.9 0.976582)
(-6.47958 4.9 -7.61676)
(-4.84653 4.9 1.00521)
(-6.54562 4.9 -7.56009)
(-5.77374 4.9 2.09515)
(-8.46559 4.9 -5.32295)
(-8.51159 4.9 -5.24908)
(-5.81942 4.9 2.16922)
(-8.51159 4.9 -5.24908)
(-5.84177 4.9 2.20655)
(-8.55695 4.9 -5.17481)
(-5.84177 4.9 2.20655)
(-8.60166 4.9 -5.10015)
(-8.64571 4.9 -5.0251)
(-5.8855 4.9 2.28179)
(-8.64571 4.9 -5.0251)
(-5.90688 4.9 2.31969)
(-8.68912 4.9 -4.94967)
(-5.90688 4.9 2.31969)
(-8.73186 4.9 -4.87387)
(-8.77394 4.9 -4.7977)
(-5.94863 4.9 2.39604)
(-8.77394 4.9 -4.7977)
(-5.969 4.9 2.43449)
(-8.81536 4.9 -4.72116)
(-6.20284 4.9 2.94922)
(-9.3238 4.9 -3.6148)
(-9.3549 4.9 -3.53353)
(-6.2336 4.9 3.03063)
(-9.3549 4.9 -3.53353)
(-6.24844 4.9 3.07154)
(-9.3853 4.9 -3.45198)
(-6.29082 4.9 3.195)
(-9.49975 4.9 -3.12326)
(-9.52657 4.9 -3.04047)
(-6.31728 4.9 3.2779)
(-9.52657 4.9 -3.04047)
(-6.32997 4.9 3.31952)
(-9.55267 4.9 -2.95745)
(-6.50119 4.9 4.12737)
(-9.92049 4.9 -1.25851)
(-9.93107 4.9 -1.17213)
(-6.51139 4.9 4.21379)
(-9.93107 4.9 -1.17213)
(-6.51593 4.9 4.25707)
(-9.94089 4.9 -1.08567)
(-6.52009 4.9 4.30038)
(-9.95828 4.9 -0.912489)
(-9.96584 4.9 -0.825793)
(-6.52727 4.9 4.38711)
(-9.96584 4.9 -0.825793)
(-6.5303 4.9 4.43051)
(-9.97265 4.9 -0.739036)
(-6.03118 4.9 7.08967)
(-8.81536 4.9 4.72116)
(-8.77394 4.9 4.7977)
(-5.98943 4.9 7.16602)
(-8.77394 4.9 4.7977)
(-6.08347 4.9 7.27853)
(-3.65534 4.9 9.30798)
(-3.5742 4.9 9.33944)
(-6.00219 4.9 7.30964)
(-3.5742 4.9 9.33944)
(-5.96135 4.9 7.32465)
(-3.49279 4.9 9.37019)
(-5.55252 4.9 1.77212)
(-8.02316 4.9 -5.969)
(-8.0748 4.9 -5.89895)
(-5.60386 4.9 1.8424)
(-8.0748 4.9 -5.89895)
(-5.62907 4.9 1.87786)
(-8.12583 4.9 -5.82846)
(-6.13712 4.9 2.78807)
(-9.19234 4.9 -3.93711)
(-9.22626 4.9 -3.85696)
(-6.17068 4.9 2.86836)
(-9.22626 4.9 -3.85696)
(-6.18694 4.9 2.90872)
(-9.25947 4.9 -3.77653)
(-6.32997 4.9 3.31952)
(-9.57804 4.9 -2.87421)
(-9.60269 4.9 -2.79075)
(-6.35425 4.9 3.40309)
(-9.60269 4.9 -2.79075)
(-6.36585 4.9 3.44503)
(-9.62662 4.9 -2.70708)
(-6.5303 4.9 4.43051)
(-9.97871 4.9 -0.652222)
(-9.98401 4.9 -0.565359)
(-6.53522 4.9 4.5174)
(-9.98401 4.9 -0.565359)
(-6.53711 4.9 4.56087)
(-9.98855 4.9 -0.478454)
(-5.98943 4.9 7.16602)
(-8.73186 4.9 4.87387)
(-8.68912 4.9 4.94967)
(-5.94635 4.9 7.24164)
(-8.68912 4.9 4.94967)
(-5.92432 4.9 7.27916)
(-8.64571 4.9 5.0251)
(-7.60324 4.9 6.41126)
(-8.22603 4.9 5.68616)
(-7.15232 4.9 6.7001)
(-5.79305 4.9 8.15111)
(-5.72189 4.9 8.20121)
(-7.08095 4.9 6.74989)
(-5.72189 4.9 8.20121)
(-7.04494 4.9 6.77432)
(-5.65031 4.9 8.2507)
(-5.92432 4.9 7.27916)
(-8.60166 4.9 5.10015)
(-8.55695 4.9 5.17481)
(-5.87929 4.9 7.35363)
(-8.55695 4.9 5.17481)
(-3.28809 4.9 9.44387)
(-3.247 4.9 9.45817)
(-8.51159 4.9 5.24908)
(-3.37015 4.9 9.41489)
(-3.32918 4.9 9.42956)
(-8.51159 4.9 5.24908)
(-5.16007 4.9 1.30671)
(-7.23825 4.9 -6.89984)
(-7.29802 4.9 -6.83659)
(-5.21957 4.9 1.37022)
(-7.29802 4.9 -6.83659)
(-5.2489 4.9 1.40236)
(-7.35724 4.9 -6.77282)
(-5.2489 4.9 1.40236)
(-7.4159 4.9 -6.70853)
(-7.474 4.9 -6.64374)
(-5.30671 4.9 1.4674)
(-7.474 4.9 -6.64374)
(-5.33519 4.9 1.50029)
(-7.53153 4.9 -6.57845)
(-5.4189 4.9 1.60045)
(-7.75592 4.9 -6.31235)
(-7.81056 4.9 -6.24461)
(-5.47325 4.9 1.66842)
(-7.81056 4.9 -6.24461)
(-5.49997 4.9 1.70276)
(-7.8646 4.9 -6.17641)
(-5.969 4.9 2.43449)
(-8.85612 4.9 -4.64427)
(-8.8962 4.9 -4.56702)
(-6.00875 4.9 2.51191)
(-8.8962 4.9 -4.56702)
(-6.02811 4.9 2.55088)
(-8.9356 4.9 -4.48943)
(-6.08416 4.9 2.66876)
(-9.08643 4.9 -4.17573)
(-9.12243 4.9 -4.0965)
(-6.11981 4.9 2.74815)
(-9.12243 4.9 -4.0965)
(-6.13712 4.9 2.78807)
(-9.15773 4.9 -4.01695)
(-6.34548 4.9 6.37315)
(-9.44395 4.9 3.28812)
(-9.41498 4.9 3.37018)
(-6.31615 4.9 6.45508)
(-9.41498 4.9 3.37018)
(-6.30095 4.9 6.49585)
(-9.3853 4.9 3.45198)
(-6.30095 4.9 6.49585)
(-9.3549 4.9 3.53353)
(-9.3238 4.9 3.6148)
(-6.26949 4.9 6.57699)
(-9.3238 4.9 3.6148)
(-6.25323 4.9 6.61735)
(-9.29199 4.9 3.69581)
(-6.25323 4.9 6.61735)
(-9.25947 4.9 3.77653)
(-9.22626 4.9 3.85696)
(-6.21967 4.9 6.69764)
(-9.22626 4.9 3.85696)
(-6.20236 4.9 6.73756)
(-9.19234 4.9 3.93711)
(-6.20236 4.9 6.73756)
(-9.15773 4.9 4.01695)
(-9.12243 4.9 4.0965)
(-6.16671 4.9 6.81695)
(-9.12243 4.9 4.0965)
(-6.14837 4.9 6.85641)
(-9.08643 4.9 4.17573)
(-6.14837 4.9 6.85641)
(-9.04975 4.9 4.25464)
(-9.01238 4.9 4.33324)
(-6.11066 4.9 6.93484)
(-9.01238 4.9 4.33324)
(-6.0913 4.9 6.9738)
(-8.97433 4.9 4.4115)
(-7.57865 4.9 6.44716)
(-8.17624 4.9 5.75753)
(-7.52855 4.9 6.51831)
(-8.17624 4.9 5.75753)
(-6.9625 4.9 7.17786)
(-8.12583 4.9 5.82846)
(-7.0247 4.9 7.117)
(-8.12583 4.9 5.82846)
(-6.89977 4.9 7.23818)
(-8.51159 4.9 5.24908)
(-7.69843 4.9 6.26555)
(-8.51159 4.9 5.24908)
(-7.67511 4.9 6.30229)
(-8.46559 4.9 5.32295)
(-7.68993 4.9 6.25864)
(-6.80476 4.9 7.3277)
(-7.62616 4.9 6.31786)
(-6.80476 4.9 7.3277)
(-7.5939 4.9 6.34705)
(-6.74074 4.9 7.38664)
(-7.2924 4.9 6.59682)
(-6.07322 4.9 7.94456)
(-6.00385 4.9 7.99711)
(-7.04494 4.9 6.77432)
(-5.57829 4.9 8.29956)
(-5.50586 4.9 8.34779)
(-6.9723 4.9 6.82223)
(-5.50586 4.9 8.34779)
(-6.93566 4.9 6.84571)
(-5.433 4.9 8.39539)
(-6.93566 4.9 6.84571)
(-5.35974 4.9 8.44235)
(-5.28607 4.9 8.48867)
(-6.86179 4.9 6.89171)
(-5.28607 4.9 8.48867)
(-6.82456 4.9 6.91423)
(-5.21199 4.9 8.53435)
(-5.33519 4.9 1.50029)
(-7.58849 4.9 -6.51266)
(-7.64488 4.9 -6.44637)
(-5.39129 4.9 1.56682)
(-7.64488 4.9 -6.44637)
(-5.4189 4.9 1.60045)
(-7.70069 4.9 -6.3796)
(-6.02811 4.9 2.55088)
(-8.97433 4.9 -4.4115)
(-9.01238 4.9 -4.33324)
(-6.06582 4.9 2.6293)
(-9.01238 4.9 -4.33324)
(-6.08416 4.9 2.66876)
(-9.04975 4.9 -4.25464)
(-6.40858 4.9 3.61374)
(-9.73526 4.9 -2.28577)
(-9.75478 4.9 -2.20096)
(-6.42773 4.9 3.69863)
(-9.75478 4.9 -2.20096)
(-6.43675 4.9 3.7412)
(-9.77357 4.9 -2.11599)
(-6.43675 4.9 3.7412)
(-9.79161 4.9 -2.03085)
(-9.80891 4.9 -1.94557)
(-6.45368 4.9 3.82656)
(-9.80891 4.9 -1.94557)
(-6.46159 4.9 3.86935)
(-9.82547 4.9 -1.86013)
(-6.48308 4.9 3.9981)
(-9.88426 4.9 -1.51705)
(-9.89709 4.9 -1.43098)
(-6.49553 4.9 4.08423)
(-9.89709 4.9 -1.43098)
(-6.50119 4.9 4.12737)
(-9.90916 4.9 -1.3448)
(-6.0913 4.9 6.9738)
(-8.9356 4.9 4.48943)
(-8.8962 4.9 4.56702)
(-6.05155 4.9 7.05122)
(-8.8962 4.9 4.56702)
(-6.03118 4.9 7.08967)
(-8.85612 4.9 4.64427)
(-7.5939 4.9 6.34705)
(-6.61116 4.9 7.50284)
(-7.5286 4.9 6.40458)
(-6.61116 4.9 7.50284)
(-7.49558 4.9 6.43292)
(-6.54562 4.9 7.56008)
(-6.82456 4.9 6.91423)
(-5.13753 4.9 8.57938)
(-5.06267 4.9 8.62377)
(-6.74951 4.9 6.95829)
(-5.06267 4.9 8.62377)
(-6.7117 4.9 6.97983)
(-4.98743 4.9 8.6675)
(-6.7117 4.9 6.97983)
(-4.91182 4.9 8.71057)
(-4.83583 4.9 8.75299)
(-6.63553 4.9 7.02191)
(-4.83583 4.9 8.75299)
(-6.59718 4.9 7.04245)
(-4.75947 4.9 8.79474)
(-6.442 4.9 7.12126)
(-4.45051 4.9 8.95505)
(-6.442 4.9 7.12126)
(-4.37241 4.9 8.99344)
(-4.29398 4.9 9.03116)
(-6.36341 4.9 7.15863)
(-4.29398 4.9 9.03116)
(-6.32387 4.9 7.1768)
(-4.21523 4.9 9.06818)
(-6.32387 4.9 7.1768)
(-4.13615 4.9 9.10452)
(-4.05676 4.9 9.14017)
(-6.24433 4.9 7.2121)
(-4.05676 4.9 9.14017)
(-6.20433 4.9 7.22924)
(-3.97707 4.9 9.17512)
(-6.46159 4.9 3.86935)
(-9.84129 4.9 -1.77456)
(-9.85636 4.9 -1.68885)
(-6.47629 4.9 3.95512)
(-9.85636 4.9 -1.68885)
(-6.48308 4.9 3.9981)
(-9.87068 4.9 -1.60301)
(-7.67511 4.9 6.30229)
(-8.37167 4.9 5.46948)
(-7.62751 4.9 6.37514)
(-8.37167 4.9 5.46948)
(-7.60324 4.9 6.41126)
(-8.32375 4.9 5.54213)
(-8.10031 4.9 5.86371)
(-7.35724 4.9 6.77282)
(-7.71192 4.9 6.33252)
(-7.35724 4.9 6.77282)
(-7.68204 4.9 6.36415)
(-7.29802 4.9 6.83658)
(-7.25772 4.9 6.6231)
(-6.00385 4.9 7.99711)
(-5.93403 4.9 8.04905)
(-7.18768 4.9 6.67473)
(-5.93403 4.9 8.04905)
(-7.15232 4.9 6.7001)
(-5.86376 4.9 8.10039)
(-6.20433 4.9 7.22924)
(-3.89707 4.9 9.20939)
(-3.81678 4.9 9.24295)
(-6.1239 4.9 7.26245)
(-3.81678 4.9 9.24295)
(-6.08347 4.9 7.27853)
(-3.7362 4.9 9.27582)
(-7.39506 4.9 6.5162)
(-6.21057 4.9 7.83765)
(-7.32686 4.9 6.57024)
(-6.21057 4.9 7.83765)
(-7.2924 4.9 6.59682)
(-6.14213 4.9 7.8914)
(-6.59718 4.9 7.04245)
(-4.68276 4.9 8.83582)
(-4.60569 4.9 8.87624)
(-6.51993 4.9 7.08253)
(-4.60569 4.9 8.87624)
(-6.48105 4.9 7.10207)
(-4.52827 4.9 8.91598)
(-7.71602 4.9 6.33589)
(-8.02316 4.9 5.969)
(-7.66407 4.9 6.40571)
(-8.02316 4.9 5.969)
(-7.63765 4.9 6.44027)
(-7.97091 4.9 6.03859)
(-7.68204 4.9 6.36415)
(-7.17793 4.9 6.96256)
(-7.62145 4.9 6.42661)
(-7.17793 4.9 6.96256)
(-7.59075 4.9 6.45745)
(-7.11707 4.9 7.02477)
(-7.49558 4.9 6.43292)
(-6.41305 4.9 7.67286)
(-7.42881 4.9 6.48873)
(-6.41305 4.9 7.67286)
(-7.39506 4.9 6.5162)
(-6.34603 4.9 7.72838)
(-7.63765 4.9 6.44027)
(-7.8646 4.9 6.17641)
(-7.5839 4.9 6.50871)
(-7.8646 4.9 6.17641)
(-7.55658 4.9 6.54258)
(-7.81056 4.9 6.24461)
(-7.50277 4.9 6.6111)
(-7.64488 4.9 6.44637)
(-7.56001 4.9 6.54556)
(-7.64488 4.9 6.44637)
(-7.55658 4.9 6.54258)
(-7.70069 4.9 6.3796)
(-7.50106 4.9 6.60959)
(-7.70069 4.9 6.3796)
(-7.38657 4.9 6.74068)
(-7.64488 4.9 6.44637)
(-7.44495 4.9 6.67614)
(-7.64488 4.9 6.44637)
(-7.89133 -0.1 -6.14207)
(-7.91806 -0.1 -6.10773)
(-7.8646 4.9 -6.17641)
(-7.83758 2.4 -6.21051)
(-7.8646 4.9 -6.17641)
(-7.83758 -0.1 -6.21051)
(-7.8646 -0.1 -6.17641)
(-7.81056 4.9 -6.24461)
(-7.78324 2.4 -6.27848)
(-7.81056 4.9 -6.24461)
(-7.78324 -0.1 -6.27848)
(-7.81056 -0.1 -6.24461)
(-7.75592 4.9 -6.31235)
(-7.72831 2.4 -6.34598)
(-7.75592 4.9 -6.31235)
(-7.72831 -0.1 -6.34598)
(-7.75592 -0.1 -6.31235)
(-7.70069 4.9 -6.3796)
(-7.67279 2.4 -6.41299)
(-7.70069 4.9 -6.3796)
(-7.67279 -0.1 -6.41299)
(-7.70069 -0.1 -6.3796)
(-7.64488 4.9 -6.44637)
(-7.61669 2.4 -6.47952)
(-7.64488 4.9 -6.44637)
(-7.61669 -0.1 -6.47952)
(-7.64488 -0.1 -6.44637)
(-7.58849 4.9 -6.51266)
(-7.56001 2.4 -6.54556)
(-7.58849 4.9 -6.51266)
(-7.56001 -0.1 -6.54556)
(-7.58849 -0.1 -6.51266)
(-7.53153 4.9 -6.57845)
(-7.50277 2.4 -6.6111)
(-7.53153 4.9 -6.57845)
(-7.50277 -0.1 -6.6111)
(-7.53153 -0.1 -6.57845)
(-7.474 4.9 -6.64374)
(-7.44495 2.4 -6.67614)
(-7.474 4.9 -6.64374)
(-7.44495 -0.1 -6.67614)
(-7.474 -0.1 -6.64374)
(-7.4159 4.9 -6.70853)
(-7.38657 2.4 -6.74068)
(-7.4159 4.9 -6.70853)
(-7.38657 -0.1 -6.74068)
(-7.4159 -0.1 -6.70853)
(-7.35724 4.9 -6.77282)
(-7.32763 2.4 -6.8047)
(-7.35724 4.9 -6.77282)
(-7.32763 -0.1 -6.8047)
(-7.35724 -0.1 -6.77282)
(-7.29802 4.9 -6.83659)
(-7.26814 2.4 -6.86821)
(-7.29802 4.9 -6.83659)
(-7.26814 -0.1 -6.86821)
(-7.29802 -0.1 -6.83659)
(-7.23825 4.9 -6.89984)
(-7.20809 2.4 -6.9312)
(-7.23825 4.9 -6.89984)
(-7.20809 -0.1 -6.9312)
(-7.23825 -0.1 -6.89984)
(-7.17793 4.9 -6.96256)
(-7.1475 2.4 -6.99367)
(-7.17793 4.9 -6.96256)
(-7.1475 -0.1 -6.99367)
(-7.17793 -0.1 -6.96256)
(-7.11707 4.9 -7.02477)
(-7.08637 2.4 -7.0556)
(-7.11707 4.9 -7.02477)
(-7.08637 -0.1 -7.0556)
(-7.11707 -0.1 -7.02477)
(-7.05567 4.9 -7.08643)
(-7.0247 2.4 -7.117)
(-7.05567 4.9 -7.08643)
(-7.0247 -0.1 -7.117)
(-7.05567 -0.1 -7.08643)
(-6.99373 4.9 -7.14757)
(-6.9625 2.4 -7.17786)
(-6.99373 4.9 -7.14757)
(-6.9625 -0.1 -7.17786)
(-6.99373 -0.1 -7.14757)
(-6.93127 4.9 -7.20816)
(-6.89977 2.4 -7.23818)
(-6.93127 4.9 -7.20816)
(-6.89977 -0.1 -7.23818)
(-6.93127 -0.1 -7.20816)
(-6.86827 4.9 -7.2682)
(-6.83652 2.4 -7.29795)
(-6.86827 4.9 -7.2682)
(-6.83652 -0.1 -7.29795)
(-6.86827 -0.1 -7.2682)
(-6.80476 4.9 -7.3277)
(-6.77275 2.4 -7.35717)
(-6.80476 4.9 -7.3277)
(-6.77275 -0.1 -7.35717)
(-6.80476 -0.1 -7.3277)
(-6.74074 4.9 -7.38664)
(-6.70847 2.4 -7.41583)
(-6.74074 4.9 -7.38664)
(-6.70847 -0.1 -7.41583)
(-6.74074 -0.1 -7.38664)
(-6.6762 4.9 -7.44502)
(-6.64368 2.4 -7.47393)
(-6.6762 4.9 -7.44502)
(-6.64368 -0.1 -7.47393)
(-6.6762 -0.1 -7.44502)
(-6.61116 4.9 -7.50284)
(-6.57839 2.4 -7.53146)
(-6.61116 4.9 -7.50284)
(-6.57839 -0.1 -7.53146)
(-6.61116 -0.1 -7.50284)
(-6.54562 4.9 -7.56009)
(-6.5126 2.4 -7.58842)
(-6.54562 4.9 -7.56009)
(-6.5126 -0.1 -7.58842)
(-6.54562 -0.1 -7.56009)
(-6.47958 4.9 -7.61676)
(-6.44631 2.4 -7.64481)
(-6.47958 4.9 -7.61676)
(-6.44631 -0.1 -7.64481)
(-6.47958 -0.1 -7.61676)
(-6.41305 4.9 -7.67286)
(-6.37954 2.4 -7.70062)
(-6.41305 4.9 -7.67286)
(-6.37954 -0.1 -7.70062)
(-6.41305 -0.1 -7.67286)
(-6.34603 4.9 -7.72838)
(-6.31229 2.4 -7.75584)
(-6.34603 4.9 -7.72838)
(-6.31229 -0.1 -7.75584)
(-6.34603 -0.1 -7.72838)
(-6.27854 4.9 -7.78331)
(-6.24455 2.4 -7.81048)
(-6.27854 4.9 -7.78331)
(-6.24455 -0.1 -7.81048)
(-6.27854 -0.1 -7.78331)
(-6.21057 4.9 -7.83765)
(-6.17635 2.4 -7.86453)
(-6.21057 4.9 -7.83765)
(-6.17635 -0.1 -7.86453)
(-6.21057 -0.1 -7.83765)
(-6.14213 4.9 -7.8914)
(-6.10767 2.4 -7.91798)
(-6.14213 4.9 -7.8914)
(-6.10767 -0.1 -7.91798)
(-6.14213 -0.1 -7.8914)
(-6.07322 4.9 -7.94456)
(-6.03854 2.4 -7.97083)
(-6.07322 4.9 -7.94456)
(-6.03854 -0.1 -7.97083)
(-6.07322 -0.1 -7.94456)
(-6.00385 4.9 -7.99711)
(-5.96894 2.4 -8.02308)
(-6.00385 4.9 -7.99711)
(-5.96894 -0.1 -8.02308)
(-6.00385 -0.1 -7.99711)
(-5.93403 4.9 -8.04905)
(-5.8989 2.4 -8.07472)
(-5.93403 4.9 -8.04905)
(-5.8989 -0.1 -8.07472)
(-5.93403 -0.1 -8.04905)
(-5.86376 4.9 -8.10039)
(-5.82841 2.4 -8.12575)
(-5.86376 4.9 -8.10039)
(-5.82841 -0.1 -8.12575)
(-5.86376 -0.1 -8.10039)
(-5.79305 4.9 -8.15111)
(-5.75747 2.4 -8.17616)
(-5.79305 4.9 -8.15111)
(-5.75747 -0.1 -8.17616)
(-5.79305 -0.1 -8.15111)
(-5.72189 4.9 -8.20121)
(-5.6861 2.4 -8.22596)
(-5.72189 4.9 -8.20121)
(-5.6861 -0.1 -8.22596)
(-5.72189 -0.1 -8.20121)
(-5.65031 4.9 -8.2507)
(-5.6143 2.4 -8.27513)
(-5.65031 4.9 -8.2507)
(-5.6143 -0.1 -8.27513)
(-5.65031 -0.1 -8.2507)
(-5.57829 4.9 -8.29956)
(-5.54207 2.4 -8.32367)
(-5.57829 4.9 -8.29956)
(-5.54207 -0.1 -8.32367)
(-5.57829 -0.1 -8.29956)
(-5.50586 4.9 -8.34779)
(-5.46943 2.4 -8.37159)
(-5.50586 4.9 -8.34779)
(-5.46943 -0.1 -8.37159)
(-5.50586 -0.1 -8.34779)
(-5.433 4.9 -8.39538)
(-5.39637 2.4 -8.41887)
(-5.433 4.9 -8.39538)
(-5.39637 -0.1 -8.41887)
(-5.433 -0.1 -8.39538)
(-5.35974 4.9 -8.44235)
(-5.3229 2.4 -8.46551)
(-5.35974 4.9 -8.44235)
(-5.3229 -0.1 -8.46551)
(-5.35974 -0.1 -8.44235)
(-5.28607 4.9 -8.48867)
(-5.24903 2.4 -8.51151)
(-5.28607 4.9 -8.48867)
(-5.24903 -0.1 -8.51151)
(-5.28607 -0.1 -8.48867)
(-5.21199 4.9 -8.53435)
(-5.17476 2.4 -8.55687)
(-5.21199 4.9 -8.53435)
(-5.17476 -0.1 -8.55687)
(-5.21199 -0.1 -8.53435)
(-5.13753 4.9 -8.57938)
(-5.1001 2.4 -8.60157)
(-5.13753 4.9 -8.57938)
(-5.1001 -0.1 -8.60157)
(-5.13753 -0.1 -8.57938)
(-5.06267 4.9 -8.62377)
(-5.02505 2.4 -8.64563)
(-5.06267 4.9 -8.62377)
(-5.02505 -0.1 -8.64563)
(-5.06267 -0.1 -8.62377)
(-4.98743 4.9 -8.6675)
(-4.94963 2.4 -8.68903)
(-4.98743 4.9 -8.6675)
(-4.94963 -0.1 -8.68903)
(-4.98743 -0.1 -8.6675)
(-4.91182 4.9 -8.71057)
(-4.87382 2.4 -8.73178)
(-4.91182 4.9 -8.71057)
(-4.87382 -0.1 -8.73178)
(-4.91182 -0.1 -8.71057)
(-4.83583 4.9 -8.75299)
(-4.79765 2.4 -8.77386)
(-4.83583 4.9 -8.75299)
(-4.79765 -0.1 -8.77386)
(-4.83583 -0.1 -8.75299)
(-4.75947 4.9 -8.79474)
(-4.72112 2.4 -8.81528)
(-4.75947 4.9 -8.79474)
(-4.72112 -0.1 -8.81528)
(-4.75947 -0.1 -8.79474)
(-4.68276 4.9 -8.83582)
(-4.64422 2.4 -8.85603)
(-4.68276 4.9 -8.83582)
(-4.64422 -0.1 -8.85603)
(-4.68276 -0.1 -8.83582)
(-4.60569 4.9 -8.87624)
(-4.56698 2.4 -8.89611)
(-4.60569 4.9 -8.87624)
(-4.56698 -0.1 -8.89611)
(-4.60569 -0.1 -8.87624)
(-4.52827 4.9 -8.91598)
(-4.48939 2.4 -8.93552)
(-4.52827 4.9 -8.91598)
(-4.48939 -0.1 -8.93552)
(-4.52827 -0.1 -8.91598)
(-4.45051 4.9 -8.95505)
(-4.41146 2.4 -8.97425)
(-4.45051 4.9 -8.95505)
(-4.41146 -0.1 -8.97425)
(-4.45051 -0.1 -8.95505)
(-4.37241 4.9 -8.99344)
(-4.33319 2.4 -9.0123)
(-4.37241 4.9 -8.99344)
(-4.33319 -0.1 -9.0123)
(-4.37241 -0.1 -8.99344)
(-4.29398 4.9 -9.03115)
(-4.2546 2.4 -9.04967)
(-4.29398 4.9 -9.03115)
(-4.2546 -0.1 -9.04967)
(-4.29398 -0.1 -9.03115)
(-4.21523 4.9 -9.06818)
(-4.17569 2.4 -9.08635)
(-4.21523 4.9 -9.06818)
(-4.17569 -0.1 -9.08635)
(-4.21523 -0.1 -9.06818)
(-4.13615 4.9 -9.10452)
(-4.09646 2.4 -9.12234)
(-4.13615 4.9 -9.10452)
(-4.09646 -0.1 -9.12234)
(-4.13615 -0.1 -9.10452)
(-4.05676 4.9 -9.14017)
(-4.01692 2.4 -9.15765)
(-4.05676 4.9 -9.14017)
(-4.01692 -0.1 -9.15765)
(-4.05676 -0.1 -9.14017)
(-3.97707 4.9 -9.17512)
(-3.93707 2.4 -9.19226)
(-3.97707 4.9 -9.17512)
(-3.93707 -0.1 -9.19226)
(-3.97707 -0.1 -9.17512)
(-3.89707 4.9 -9.20939)
(-3.85693 2.4 -9.22617)
(-3.89707 4.9 -9.20939)
(-3.85693 -0.1 -9.22617)
(-3.89707 -0.1 -9.20939)
(-3.81678 4.9 -9.24295)
(-3.77649 2.4 -9.25938)
(-3.81678 4.9 -9.24295)
(-3.77649 -0.1 -9.25938)
(-3.81678 -0.1 -9.24295)
(-3.7362 4.9 -9.27582)
(-3.69577 2.4 -9.2919)
(-3.7362 4.9 -9.27582)
(-3.69577 -0.1 -9.2919)
(-3.7362 -0.1 -9.27582)
(-3.65534 4.9 -9.30798)
(-3.61477 2.4 -9.32371)
(-3.65534 4.9 -9.30798)
(-3.61477 -0.1 -9.32371)
(-3.65534 -0.1 -9.30798)
(-3.5742 4.9 -9.33944)
(-3.53349 2.4 -9.35481)
(-3.5742 4.9 -9.33944)
(-3.53349 -0.1 -9.35481)
(-3.5742 -0.1 -9.33944)
(-3.49279 4.9 -9.37019)
(-3.45195 2.4 -9.38521)
(-3.49279 4.9 -9.37019)
(-3.45195 -0.1 -9.38521)
(-3.49279 -0.1 -9.37019)
(-3.41111 4.9 -9.40023)
(-3.37015 2.4 -9.41489)
(-3.41111 4.9 -9.40023)
(-3.37015 -0.1 -9.41489)
(-3.41111 -0.1 -9.40023)
(-3.32918 4.9 -9.42956)
(-3.28809 2.4 -9.44387)
(-3.32918 4.9 -9.42956)
(-3.28809 -0.1 -9.44387)
(-3.32918 -0.1 -9.42956)
(-3.247 4.9 -9.45817)
(-3.20578 2.4 -9.47212)
(-3.247 4.9 -9.45817)
(-3.20578 -0.1 -9.47212)
(-3.247 -0.1 -9.45817)
(-3.16456 4.9 -9.48607)
(-3.12323 2.4 -9.49966)
(-3.16456 4.9 -9.48607)
(-3.12323 -0.1 -9.49966)
(-3.16456 -0.1 -9.48607)
(-3.08189 4.9 -9.51325)
(-3.04044 2.4 -9.52648)
(-3.08189 4.9 -9.51325)
(-3.04044 -0.1 -9.52648)
(-3.08189 -0.1 -9.51325)
(-2.99899 4.9 -9.53971)
(-2.95742 2.4 -9.55258)
(-2.99899 4.9 -9.53971)
(-2.95742 -0.1 -9.55258)
(-2.99899 -0.1 -9.53971)
(-2.91586 4.9 -9.56545)
(-2.87418 2.4 -9.57795)
(-2.91586 4.9 -9.56545)
(-2.87418 -0.1 -9.57795)
(-2.91586 -0.1 -9.56545)
(-2.8325 4.9 -9.59046)
(-2.79072 2.4 -9.6026)
(-2.8325 4.9 -9.59046)
(-2.79072 -0.1 -9.6026)
(-2.8325 -0.1 -9.59046)
(-2.74894 4.9 -9.61475)
(-2.70705 2.4 -9.62653)
(-2.74894 4.9 -9.61475)
(-2.70705 -0.1 -9.62653)
(-2.74894 -0.1 -9.61475)
(-2.66516 4.9 -9.63831)
(-2.62317 2.4 -9.64972)
(-2.66516 4.9 -9.63831)
(-2.62317 -0.1 -9.64972)
(-2.66516 -0.1 -9.63831)
(-2.58119 4.9 -9.66113)
(-2.5391 2.4 -9.67218)
(-2.58119 4.9 -9.66113)
(-2.5391 -0.1 -9.67218)
(-2.58119 -0.1 -9.66113)
(-2.49701 4.9 -9.68323)
(-2.45483 2.4 -9.69391)
(-2.49701 4.9 -9.68323)
(-2.45483 -0.1 -9.69391)
(-2.49701 -0.1 -9.68323)
(-2.41265 4.9 -9.70459)
(-2.37038 2.4 -9.71491)
(-2.41265 4.9 -9.70459)
(-2.37038 -0.1 -9.71491)
(-2.41265 -0.1 -9.70459)
(-2.32811 4.9 -9.72522)
(-2.28575 2.4 -9.73517)
(-2.32811 4.9 -9.72522)
(-2.28575 -0.1 -9.73517)
(-2.32811 -0.1 -9.72522)
(-2.24339 4.9 -9.74511)
(-2.20094 2.4 -9.75469)
(-2.24339 4.9 -9.74511)
(-2.20094 -0.1 -9.75469)
(-2.24339 -0.1 -9.74511)
(-2.1585 4.9 -9.76427)