/*--------------------------------*- C++ -*----------------------------------*\
| =========                 |                                                 |
| \\      /  F ield         | OpenFOAM: The Open Source CFD Toolbox           |
|  \\    /   O peration     | Version:  v2112                                 |
|   \\  /    A nd           | Website:  www.openfoam.com                      |
|    \\/     M anipulation  |                                                 |
\*---------------------------------------------------------------------------*/
FoamFile
{
    version     2.0;
    format      ascii;
    class       volScalarField;
    object      omega;
}
// * * * * * * * * * * * * * * * * * * * * * * * * * * * * * * * * * * * * * //

dimensions      [0 0 -1 0 0 0 0];

internalField   uniform 21.9;

boundaryField
{

    "(atmosphere|atmosphereTop)"
	{
		type			inletOutlet;
        value           $internalField;
        inletValue      $internalField;
	}
    tornadoSimulator
    {
        type            zeroGradient;
    }
    ground
    {
        type            omegaWallFunction;
        value           $internalField;
    }
    AMI1
    {
        type            cyclic;
    }
    AMI2
    {
        type            cyclic;
    }
}


// ************************************************************************* //
