/*--------------------------------*- C++ -*----------------------------------*\
| =========                 |                                                 |
| \\      /  F ield         | OpenFOAM: The Open Source CFD Toolbox           |
|  \\    /   O peration     | Version:  2306                                  |
|   \\  /    A nd           | Website:  www.openfoam.com                      |
|    \\/     M anipulation  |                                                 |
\*---------------------------------------------------------------------------*/
FoamFile
{
    version     2.0;
    format      ascii;
    arch        "LSB;label=32;scalar=64";
    class       extendedFeatureEdgeMesh;
    location    "constant/extendedFeatureEdgeMesh";
    object      tornadoSimulatorATMMask.extendedFeatureEdgeMesh;
}
// * * * * * * * * * * * * * * * * * * * * * * * * * * * * * * * * * * * * * //

// points

2168
(
(7 2.7 7)
(7 2.7 -7)
(-7 2.7 -7)
(-7 2.7 7)
(7 4.072 -7)
(-7 4.072 -7)
(7 4.072 7)
(-7 4.072 7)
(2.48211 2.7 1.18391)
(2.47168 2.7 1.20552)
(2.49235 2.7 1.1622)
(2.50239 2.7 1.14041)
(2.51225 2.7 1.11853)
(2.52191 2.7 1.09656)
(2.53139 2.7 1.07451)
(2.54067 2.7 1.05238)
(2.54976 2.7 1.03017)
(2.55865 2.7 1.00788)
(2.56735 2.7 0.985512)
(2.57585 2.7 0.96307)
(2.58415 2.7 0.940556)
(2.59226 2.7 0.917969)
(2.60018 2.7 0.895312)
(2.60789 2.7 0.872588)
(2.6154 2.7 0.849797)
(2.62272 2.7 0.826941)
(2.62984 2.7 0.804022)
(2.63675 2.7 0.781042)
(2.64347 2.7 0.758003)
(2.64998 2.7 0.734906)
(2.6563 2.7 0.711752)
(2.66241 2.7 0.688545)
(2.66831 2.7 0.665285)
(2.67402 2.7 0.641975)
(2.67952 2.7 0.618615)
(2.68481 2.7 0.595209)
(2.68991 2.7 0.571757)
(2.69479 2.7 0.548262)
(2.69947 2.7 0.524725)
(2.70395 2.7 0.501148)
(2.70822 2.7 0.477532)
(2.71229 2.7 0.453881)
(2.71614 2.7 0.430195)
(2.71979 2.7 0.406476)
(2.72324 2.7 0.382726)
(2.72647 2.7 0.358947)
(2.7295 2.7 0.335141)
(2.73232 2.7 0.311309)
(2.73494 2.7 0.287453)
(2.73734 2.7 0.263576)
(2.73954 2.7 0.239678)
(2.74152 2.7 0.215763)
(2.7433 2.7 0.19183)
(2.74487 2.7 0.167883)
(2.74623 2.7 0.143924)
(2.74738 2.7 0.119953)
(2.74832 2.7 0.095973)
(2.74906 2.7 0.071987)
(2.74958 2.7 0.047994)
(2.74989 2.7 0.023998)
(2.75 2.7 0)
(2.74989 2.7 -0.023998)
(2.74958 2.7 -0.047994)
(2.74906 2.7 -0.071987)
(2.74832 2.7 -0.095973)
(2.74738 2.7 -0.119953)
(2.74623 2.7 -0.143924)
(2.74487 2.7 -0.167883)
(2.7433 2.7 -0.19183)
(2.74152 2.7 -0.215763)
(2.73954 2.7 -0.239678)
(2.73734 2.7 -0.263576)
(2.73494 2.7 -0.287453)
(2.73232 2.7 -0.311309)
(2.7295 2.7 -0.335141)
(2.72647 2.7 -0.358947)
(2.72324 2.7 -0.382726)
(2.71979 2.7 -0.406476)
(2.71614 2.7 -0.430195)
(2.71229 2.7 -0.453881)
(2.70822 2.7 -0.477532)
(2.70395 2.7 -0.501148)
(2.69947 2.7 -0.524725)
(2.69479 2.7 -0.548262)
(2.68991 2.7 -0.571757)
(2.68481 2.7 -0.595209)
(2.67952 2.7 -0.618615)
(2.67402 2.7 -0.641975)
(2.66831 2.7 -0.665285)
(0.571757 2.7 -2.68991)
(0.595209 2.7 -2.68481)
(0.618615 2.7 -2.67952)
(0.641975 2.7 -2.67402)
(0.665285 2.7 -2.66831)
(0.688545 2.7 -2.66241)
(0.711752 2.7 -2.6563)
(0.734906 2.7 -2.64998)
(0.758003 2.7 -2.64347)
(0.781042 2.7 -2.63675)
(0.804022 2.7 -2.62984)
(0.826941 2.7 -2.62272)
(0.849797 2.7 -2.6154)
(0.872588 2.7 -2.60789)
(0.895312 2.7 -2.60018)
(0.917969 2.7 -2.59226)
(0.940556 2.7 -2.58415)
(0.96307 2.7 -2.57585)
(0.985512 2.7 -2.56735)
(1.00788 2.7 -2.55865)
(1.03017 2.7 -2.54976)
(1.05238 2.7 -2.54067)
(1.07451 2.7 -2.53139)
(1.09656 2.7 -2.52191)
(1.11853 2.7 -2.51225)
(1.14041 2.7 -2.50239)
(1.1622 2.7 -2.49235)
(1.18391 2.7 -2.48211)
(1.20552 2.7 -2.47168)
(1.22704 2.7 -2.46107)
(1.24847 2.7 -2.45027)
(1.26981 2.7 -2.43928)
(1.29105 2.7 -2.42811)
(1.31219 2.7 -2.41675)
(1.33323 2.7 -2.4052)
(1.35417 2.7 -2.39348)
(1.375 2.7 -2.38157)
(1.39573 2.7 -2.36948)
(1.41636 2.7 -2.35721)
(1.43687 2.7 -2.34476)
(1.45728 2.7 -2.33213)
(1.47757 2.7 -2.31933)
(1.49776 2.7 -2.30634)
(1.51783 2.7 -2.29319)
(1.53778 2.7 -2.27985)
(1.55762 2.7 -2.26635)
(1.57733 2.7 -2.25267)
(1.59693 2.7 -2.23882)
(1.61641 2.7 -2.2248)
(1.63576 2.7 -2.21061)
(1.65499 2.7 -2.19625)
(1.67409 2.7 -2.18172)
(1.69307 2.7 -2.16703)
(1.71192 2.7 -2.15217)
(1.73063 2.7 -2.13715)
(1.74921 2.7 -2.12197)
(1.76767 2.7 -2.10662)
(1.78598 2.7 -2.09112)
(1.80416 2.7 -2.07545)
(1.82221 2.7 -2.05963)
(1.84011 2.7 -2.04365)
(1.85787 2.7 -2.02751)
(1.8755 2.7 -2.01122)
(1.89298 2.7 -1.99478)
(1.91031 2.7 -1.97819)
(1.9275 2.7 -1.96144)
(1.94454 2.7 -1.94454)
(1.96144 2.7 -1.9275)
(1.97819 2.7 -1.91031)
(1.99478 2.7 -1.89298)
(2.01122 2.7 -1.87549)
(2.02751 2.7 -1.85787)
(2.04365 2.7 -1.84011)
(2.05963 2.7 -1.82221)
(2.07545 2.7 -1.80416)
(2.09112 2.7 -1.78598)
(2.10662 2.7 -1.76767)
(2.12197 2.7 -1.74921)
(2.13715 2.7 -1.73063)
(2.15217 2.7 -1.71192)
(2.16703 2.7 -1.69307)
(2.18172 2.7 -1.67409)
(2.19625 2.7 -1.65499)
(2.21061 2.7 -1.63576)
(2.2248 2.7 -1.61641)
(2.23882 2.7 -1.59693)
(2.25267 2.7 -1.57733)
(2.26635 2.7 -1.55762)
(2.27985 2.7 -1.53778)
(2.29319 2.7 -1.51783)
(2.30634 2.7 -1.49776)
(2.31933 2.7 -1.47757)
(2.33213 2.7 -1.45728)
(2.34476 2.7 -1.43687)
(2.35721 2.7 -1.41636)
(2.36948 2.7 -1.39573)
(2.38157 2.7 -1.375)
(2.39348 2.7 -1.35417)
(2.40521 2.7 -1.33323)
(2.41675 2.7 -1.31219)
(2.42811 2.7 -1.29105)
(2.43928 2.7 -1.26981)
(2.45027 2.7 -1.24847)
(2.46107 2.7 -1.22704)
(2.47168 2.7 -1.20552)
(2.48211 2.7 -1.18391)
(2.49235 2.7 -1.1622)
(2.50239 2.7 -1.14041)
(2.51225 2.7 -1.11853)
(2.52191 2.7 -1.09656)
(2.53139 2.7 -1.07451)
(2.54067 2.7 -1.05238)
(2.54976 2.7 -1.03017)
(2.55865 2.7 -1.00788)
(2.56735 2.7 -0.985512)
(2.57585 2.7 -0.96307)
(2.58415 2.7 -0.940556)
(2.59226 2.7 -0.917969)
(2.60018 2.7 -0.895312)
(2.60789 2.7 -0.872588)
(2.6154 2.7 -0.849797)
(2.62272 2.7 -0.826941)
(2.62984 2.7 -0.804022)
(2.63675 2.7 -0.781042)
(2.64347 2.7 -0.758003)
(2.64998 2.7 -0.734906)
(2.6563 2.7 -0.711752)
(2.66241 2.7 -0.688545)
(-2.16703 2.7 -1.69307)
(-2.15217 2.7 -1.71192)
(-2.13715 2.7 -1.73063)
(-2.12197 2.7 -1.74921)
(-2.10662 2.7 -1.76767)
(-2.09112 2.7 -1.78598)
(-2.07545 2.7 -1.80416)
(-2.05963 2.7 -1.82221)
(-2.04365 2.7 -1.84011)
(-2.02751 2.7 -1.85787)
(-2.01122 2.7 -1.87549)
(-1.99478 2.7 -1.89298)
(-1.97819 2.7 -1.91031)
(-1.96144 2.7 -1.9275)
(-1.94454 2.7 -1.94454)
(-1.9275 2.7 -1.96144)
(-1.91031 2.7 -1.97819)
(-1.89298 2.7 -1.99478)
(-1.87549 2.7 -2.01122)
(-1.85787 2.7 -2.02751)
(-1.84011 2.7 -2.04365)
(-1.82221 2.7 -2.05963)
(-1.80416 2.7 -2.07545)
(-1.78598 2.7 -2.09112)
(-1.76767 2.7 -2.10662)
(-1.74921 2.7 -2.12197)
(-1.73063 2.7 -2.13715)
(-1.71192 2.7 -2.15217)
(-1.69307 2.7 -2.16703)
(-1.67409 2.7 -2.18172)
(-1.65499 2.7 -2.19625)
(-1.63576 2.7 -2.21061)
(-1.61641 2.7 -2.2248)
(-1.59693 2.7 -2.23882)
(-1.57733 2.7 -2.25267)
(-1.55762 2.7 -2.26635)
(-1.53778 2.7 -2.27985)
(-1.51783 2.7 -2.29319)
(-1.49776 2.7 -2.30634)
(-1.47757 2.7 -2.31933)
(-1.45728 2.7 -2.33213)
(-1.43687 2.7 -2.34476)
(-1.41636 2.7 -2.35721)
(-1.39573 2.7 -2.36948)
(-1.375 2.7 -2.38157)
(-1.35417 2.7 -2.39348)
(-1.33323 2.7 -2.4052)
(-1.31219 2.7 -2.41675)
(-1.29105 2.7 -2.42811)
(-1.26981 2.7 -2.43928)
(-1.24847 2.7 -2.45027)
(-1.22704 2.7 -2.46107)
(-1.20552 2.7 -2.47168)
(-1.18391 2.7 -2.48211)
(-1.1622 2.7 -2.49235)
(-1.14041 2.7 -2.50239)
(-1.11853 2.7 -2.51225)
(-1.09656 2.7 -2.52191)
(-1.07451 2.7 -2.53139)
(-1.05238 2.7 -2.54067)
(-1.03017 2.7 -2.54976)
(-1.00788 2.7 -2.55865)
(-0.985512 2.7 -2.56735)
(-0.96307 2.7 -2.57585)
(-0.940556 2.7 -2.58415)
(-0.917969 2.7 -2.59226)
(-0.895312 2.7 -2.60018)
(-0.872588 2.7 -2.60789)
(-0.849797 2.7 -2.6154)
(-0.826941 2.7 -2.62272)
(-0.804022 2.7 -2.62984)
(-0.781042 2.7 -2.63675)
(-0.758003 2.7 -2.64347)
(-0.734906 2.7 -2.64998)
(-0.711752 2.7 -2.6563)
(-0.688545 2.7 -2.66241)
(-0.665285 2.7 -2.66831)
(-0.641975 2.7 -2.67402)
(-0.618615 2.7 -2.67952)
(-0.595209 2.7 -2.68481)
(-0.571757 2.7 -2.68991)
(-0.548262 2.7 -2.69479)
(-0.524725 2.7 -2.69948)
(-0.501148 2.7 -2.70395)
(-0.477532 2.7 -2.70822)
(-0.453881 2.7 -2.71229)
(-0.430195 2.7 -2.71614)
(-0.406476 2.7 -2.71979)
(-0.382726 2.7 -2.72324)
(-0.358947 2.7 -2.72647)
(-0.335141 2.7 -2.7295)
(-0.311309 2.7 -2.73232)
(-0.287453 2.7 -2.73494)
(-0.263576 2.7 -2.73734)
(-0.239678 2.7 -2.73954)
(-0.215763 2.7 -2.74152)
(-0.19183 2.7 -2.7433)
(-0.167883 2.7 -2.74487)
(-0.143924 2.7 -2.74623)
(-0.119953 2.7 -2.74738)
(-0.095973 2.7 -2.74832)
(-0.071987 2.7 -2.74906)
(-0.047994 2.7 -2.74958)
(-0.023998 2.7 -2.74989)
(0 2.7 -2.75)
(0.023998 2.7 -2.74989)
(0.047994 2.7 -2.74958)
(0.071987 2.7 -2.74906)
(0.095973 2.7 -2.74832)
(0.119953 2.7 -2.74738)
(0.143924 2.7 -2.74623)
(0.167883 2.7 -2.74487)
(0.19183 2.7 -2.7433)
(0.215763 2.7 -2.74152)
(0.239678 2.7 -2.73954)
(0.263576 2.7 -2.73734)
(0.287453 2.7 -2.73494)
(0.311309 2.7 -2.73232)
(0.335141 2.7 -2.7295)
(0.358947 2.7 -2.72647)
(0.382726 2.7 -2.72324)
(0.406476 2.7 -2.71979)
(0.430195 2.7 -2.71614)
(0.453881 2.7 -2.71229)
(0.477532 2.7 -2.70822)
(0.501148 2.7 -2.70395)
(0.524725 2.7 -2.69948)
(0.548262 2.7 -2.69479)
(-2.47168 2.7 1.20552)
(-2.48211 2.7 1.18391)
(-2.49235 2.7 1.1622)
(-2.50239 2.7 1.14041)
(-2.51225 2.7 1.11853)
(-2.52191 2.7 1.09656)
(-2.53139 2.7 1.07451)
(-2.54067 2.7 1.05238)
(-2.54976 2.7 1.03017)
(-2.55865 2.7 1.00788)
(-2.56735 2.7 0.985512)
(-2.57585 2.7 0.96307)
(-2.58415 2.7 0.940556)
(-2.59226 2.7 0.917969)
(-2.60018 2.7 0.895312)
(-2.60789 2.7 0.872588)
(-2.6154 2.7 0.849797)
(-2.62272 2.7 0.826941)
(-2.62984 2.7 0.804022)
(-2.63675 2.7 0.781042)
(-2.64347 2.7 0.758003)
(-2.64998 2.7 0.734906)
(-2.6563 2.7 0.711752)
(-2.66241 2.7 0.688545)
(-2.66831 2.7 0.665285)
(-2.67402 2.7 0.641975)
(-2.67952 2.7 0.618615)
(-2.68481 2.7 0.595209)
(-2.68991 2.7 0.571757)
(-2.69479 2.7 0.548262)
(-2.69948 2.7 0.524725)
(-2.70395 2.7 0.501148)
(-2.70822 2.7 0.477532)
(-2.71229 2.7 0.453881)
(-2.71614 2.7 0.430195)
(-2.71979 2.7 0.406476)
(-2.72324 2.7 0.382726)
(-2.72647 2.7 0.358947)
(-2.7295 2.7 0.335141)
(-2.73232 2.7 0.311309)
(-2.73494 2.7 0.287453)
(-2.73734 2.7 0.263576)
(-2.73954 2.7 0.239678)
(-2.74152 2.7 0.215763)
(-2.7433 2.7 0.19183)
(-2.74487 2.7 0.167883)
(-2.74623 2.7 0.143924)
(-2.74738 2.7 0.119953)
(-2.74832 2.7 0.095973)
(-2.74906 2.7 0.071987)
(-2.74958 2.7 0.047994)
(-2.74989 2.7 0.023998)
(-2.75 2.7 0)
(-2.74989 2.7 -0.023998)
(-2.74958 2.7 -0.047994)
(-2.74906 2.7 -0.071987)
(-2.74832 2.7 -0.095973)
(-2.74738 2.7 -0.119953)
(-2.74623 2.7 -0.143924)
(-2.74487 2.7 -0.167883)
(-2.7433 2.7 -0.19183)
(-2.74152 2.7 -0.215763)
(-2.73954 2.7 -0.239678)
(-2.73734 2.7 -0.263576)
(-2.73494 2.7 -0.287453)
(-2.73232 2.7 -0.311309)
(-2.7295 2.7 -0.335141)
(-2.72647 2.7 -0.358947)
(-2.72324 2.7 -0.382726)
(-2.71979 2.7 -0.406476)
(-2.71614 2.7 -0.430195)
(-2.71229 2.7 -0.453881)
(-2.70822 2.7 -0.477532)
(-2.70395 2.7 -0.501148)
(-2.69948 2.7 -0.524725)
(-2.69479 2.7 -0.548262)
(-2.68991 2.7 -0.571757)
(-2.68481 2.7 -0.595209)
(-2.67952 2.7 -0.618615)
(-2.67402 2.7 -0.641975)
(-2.66831 2.7 -0.665285)
(-2.66241 2.7 -0.688545)
(-2.6563 2.7 -0.711752)
(-2.64998 2.7 -0.734906)
(-2.64347 2.7 -0.758003)
(-2.63675 2.7 -0.781042)
(-2.62984 2.7 -0.804022)
(-2.62272 2.7 -0.826941)
(-2.6154 2.7 -0.849797)
(-2.60789 2.7 -0.872588)
(-2.60018 2.7 -0.895312)
(-2.59226 2.7 -0.917969)
(-2.58415 2.7 -0.940556)
(-2.57585 2.7 -0.96307)
(-2.56735 2.7 -0.985512)
(-2.55865 2.7 -1.00788)
(-2.54976 2.7 -1.03017)
(-2.54067 2.7 -1.05238)
(-2.53139 2.7 -1.07451)
(-2.52191 2.7 -1.09656)
(-2.51225 2.7 -1.11853)
(-2.50239 2.7 -1.14041)
(-2.49235 2.7 -1.1622)
(-2.48211 2.7 -1.18391)
(-2.47168 2.7 -1.20552)
(-2.46107 2.7 -1.22704)
(-2.45027 2.7 -1.24847)
(-2.43928 2.7 -1.26981)
(-2.42811 2.7 -1.29105)
(-2.41675 2.7 -1.31219)
(-2.4052 2.7 -1.33323)
(-2.39348 2.7 -1.35417)
(-2.38157 2.7 -1.375)
(-2.36948 2.7 -1.39573)
(-2.35721 2.7 -1.41636)
(-2.34476 2.7 -1.43687)
(-2.33213 2.7 -1.45728)
(-2.31933 2.7 -1.47757)
(-2.30634 2.7 -1.49776)
(-2.29319 2.7 -1.51783)
(-2.27985 2.7 -1.53778)
(-2.26635 2.7 -1.55762)
(-2.25267 2.7 -1.57733)
(-2.23882 2.7 -1.59693)
(-2.2248 2.7 -1.61641)
(-2.21061 2.7 -1.63576)
(-2.19625 2.7 -1.65499)
(-2.18172 2.7 -1.67409)
(0 2.7 2.75)
(-0.023998 2.7 2.74989)
(-0.047994 2.7 2.74958)
(-0.071987 2.7 2.74906)
(-0.095973 2.7 2.74832)
(-0.119953 2.7 2.74738)
(-0.143924 2.7 2.74623)
(-0.167883 2.7 2.74487)
(-0.19183 2.7 2.7433)
(-0.215763 2.7 2.74152)
(-0.239678 2.7 2.73954)
(-0.263576 2.7 2.73734)
(-0.287453 2.7 2.73494)
(-0.311309 2.7 2.73232)
(-0.335141 2.7 2.7295)
(-0.358947 2.7 2.72647)
(-0.382726 2.7 2.72324)
(-0.406476 2.7 2.71979)
(-0.430195 2.7 2.71614)
(-0.453881 2.7 2.71229)
(-0.477532 2.7 2.70822)
(-0.501148 2.7 2.70395)
(-0.524725 2.7 2.69947)
(-0.548262 2.7 2.69479)
(-0.571757 2.7 2.68991)
(-0.595209 2.7 2.68481)
(-0.618615 2.7 2.67952)
(-0.641975 2.7 2.67402)
(-0.665285 2.7 2.66831)
(-0.688545 2.7 2.66241)
(-0.711752 2.7 2.6563)
(-0.734906 2.7 2.64998)
(-0.758003 2.7 2.64347)
(-0.781042 2.7 2.63675)
(-0.804022 2.7 2.62984)
(-0.826941 2.7 2.62272)
(-0.849797 2.7 2.6154)
(-0.872588 2.7 2.60789)
(-0.895312 2.7 2.60018)
(-0.917969 2.7 2.59226)
(-0.940556 2.7 2.58415)
(-0.96307 2.7 2.57585)
(-0.985512 2.7 2.56735)
(-1.00788 2.7 2.55865)
(-1.03017 2.7 2.54976)
(-1.05238 2.7 2.54067)
(-1.07451 2.7 2.53139)
(-1.09656 2.7 2.52191)
(-1.11853 2.7 2.51225)
(-1.14041 2.7 2.50239)
(-1.1622 2.7 2.49235)
(-1.18391 2.7 2.48211)
(-1.20552 2.7 2.47168)
(-1.22704 2.7 2.46107)
(-1.24847 2.7 2.45027)
(-1.26981 2.7 2.43928)
(-1.29105 2.7 2.42811)
(-1.31219 2.7 2.41675)
(-1.33323 2.7 2.40521)
(-1.35417 2.7 2.39348)
(-1.375 2.7 2.38157)
(-1.39573 2.7 2.36948)
(-1.41636 2.7 2.35721)
(-1.43687 2.7 2.34476)
(-1.45728 2.7 2.33213)
(-1.47757 2.7 2.31933)
(-1.49776 2.7 2.30634)
(-1.51783 2.7 2.29319)
(-1.53778 2.7 2.27985)
(-1.55762 2.7 2.26635)
(-1.57733 2.7 2.25267)
(-1.59693 2.7 2.23882)
(-1.61641 2.7 2.2248)
(-1.63576 2.7 2.21061)
(-1.65499 2.7 2.19625)
(-1.67409 2.7 2.18172)
(-1.69307 2.7 2.16703)
(-1.71192 2.7 2.15217)
(-1.73063 2.7 2.13715)
(-1.74921 2.7 2.12197)
(-1.76767 2.7 2.10662)
(-1.78598 2.7 2.09112)
(-1.80416 2.7 2.07545)
(-1.82221 2.7 2.05963)
(-1.84011 2.7 2.04365)
(-1.85787 2.7 2.02751)
(-1.87549 2.7 2.01122)
(-1.89298 2.7 1.99478)
(-1.91031 2.7 1.97819)
(-1.9275 2.7 1.96144)
(-1.94454 2.7 1.94454)
(-1.96144 2.7 1.9275)
(-1.97819 2.7 1.91031)
(-1.99478 2.7 1.89298)
(-2.01122 2.7 1.8755)
(-2.02751 2.7 1.85787)
(-2.04365 2.7 1.84011)
(-2.05963 2.7 1.82221)
(-2.07545 2.7 1.80416)
(-2.09112 2.7 1.78598)
(-2.10662 2.7 1.76767)
(-2.12197 2.7 1.74921)
(-2.13715 2.7 1.73063)
(-2.15217 2.7 1.71192)
(-2.16703 2.7 1.69307)
(-2.18172 2.7 1.67409)
(-2.19625 2.7 1.65499)
(-2.21061 2.7 1.63576)
(-2.2248 2.7 1.61641)
(-2.23882 2.7 1.59693)
(-2.25267 2.7 1.57733)
(-2.26635 2.7 1.55762)
(-2.27985 2.7 1.53778)
(-2.29319 2.7 1.51783)
(-2.30634 2.7 1.49776)
(-2.31933 2.7 1.47757)
(-2.33213 2.7 1.45728)
(-2.34476 2.7 1.43687)
(-2.35721 2.7 1.41636)
(-2.36948 2.7 1.39573)
(-2.38157 2.7 1.375)
(-2.39348 2.7 1.35417)
(-2.4052 2.7 1.33323)
(-2.41675 2.7 1.31219)
(-2.42811 2.7 1.29105)
(-2.43928 2.7 1.26981)
(-2.45027 2.7 1.24847)
(-2.46107 2.7 1.22704)
(2.46107 2.7 1.22704)
(2.45027 2.7 1.24847)
(2.43928 2.7 1.26981)
(2.42811 2.7 1.29105)
(2.41675 2.7 1.31219)
(2.40521 2.7 1.33323)
(2.39348 2.7 1.35417)
(2.38157 2.7 1.375)
(2.36948 2.7 1.39573)
(2.35721 2.7 1.41636)
(2.34476 2.7 1.43687)
(2.33213 2.7 1.45728)
(2.31933 2.7 1.47757)
(2.30634 2.7 1.49776)
(2.29319 2.7 1.51783)
(2.27985 2.7 1.53778)
(2.26635 2.7 1.55762)
(2.25267 2.7 1.57733)
(2.23882 2.7 1.59693)
(2.2248 2.7 1.61641)
(2.21061 2.7 1.63576)
(2.19625 2.7 1.65499)
(2.18172 2.7 1.67409)
(2.16703 2.7 1.69307)
(2.15217 2.7 1.71192)
(2.13715 2.7 1.73063)
(2.12197 2.7 1.74921)
(2.10662 2.7 1.76767)
(2.09112 2.7 1.78598)
(2.07545 2.7 1.80416)
(2.05963 2.7 1.82221)
(2.04365 2.7 1.84011)
(2.02751 2.7 1.85787)
(2.01122 2.7 1.8755)
(1.99478 2.7 1.89298)
(1.97819 2.7 1.91031)
(1.96144 2.7 1.9275)
(1.94454 2.7 1.94454)
(1.9275 2.7 1.96144)
(1.91031 2.7 1.97819)
(1.89298 2.7 1.99478)
(1.8755 2.7 2.01122)
(1.85787 2.7 2.02751)
(1.84011 2.7 2.04365)
(1.82221 2.7 2.05963)
(1.80416 2.7 2.07545)
(1.78598 2.7 2.09112)
(1.76767 2.7 2.10662)
(1.74921 2.7 2.12197)
(1.73063 2.7 2.13715)
(1.71192 2.7 2.15217)
(1.69307 2.7 2.16703)
(1.67409 2.7 2.18172)
(1.65499 2.7 2.19625)
(1.63576 2.7 2.21061)
(1.61641 2.7 2.2248)
(1.59693 2.7 2.23882)
(1.57733 2.7 2.25267)
(1.55762 2.7 2.26635)
(1.53778 2.7 2.27985)
(1.51783 2.7 2.29319)
(1.49776 2.7 2.30634)
(1.47757 2.7 2.31933)
(1.45728 2.7 2.33213)
(1.43687 2.7 2.34476)
(1.41636 2.7 2.35721)
(1.39573 2.7 2.36948)
(1.375 2.7 2.38157)
(1.35417 2.7 2.39348)
(1.33323 2.7 2.40521)
(1.31219 2.7 2.41675)
(1.29105 2.7 2.42811)
(1.26981 2.7 2.43928)
(1.24847 2.7 2.45027)
(1.22704 2.7 2.46107)
(1.20552 2.7 2.47168)
(1.18391 2.7 2.48211)
(1.1622 2.7 2.49235)
(1.14041 2.7 2.50239)
(1.11853 2.7 2.51225)
(1.09656 2.7 2.52191)
(1.07451 2.7 2.53139)
(1.05238 2.7 2.54067)
(1.03017 2.7 2.54976)
(1.00788 2.7 2.55865)
(0.985512 2.7 2.56735)
(0.96307 2.7 2.57585)
(0.940556 2.7 2.58415)
(0.917969 2.7 2.59226)
(0.895312 2.7 2.60018)
(0.872588 2.7 2.60789)
(0.849797 2.7 2.6154)
(0.826941 2.7 2.62272)
(0.804022 2.7 2.62984)
(0.781042 2.7 2.63675)
(0.758003 2.7 2.64347)
(0.734906 2.7 2.64998)
(0.711752 2.7 2.6563)
(0.688545 2.7 2.66241)
(0.665285 2.7 2.66831)
(0.641975 2.7 2.67402)
(0.618615 2.7 2.67952)
(0.595209 2.7 2.68481)
(0.571757 2.7 2.68991)
(0.548262 2.7 2.69479)
(0.524725 2.7 2.69947)
(0.501148 2.7 2.70395)
(0.477532 2.7 2.70822)
(0.453881 2.7 2.71229)
(0.430195 2.7 2.71614)
(0.406476 2.7 2.71979)
(0.382726 2.7 2.72324)
(0.358947 2.7 2.72647)
(0.335141 2.7 2.7295)
(0.311309 2.7 2.73232)
(0.287453 2.7 2.73494)
(0.263576 2.7 2.73734)
(0.239678 2.7 2.73954)
(0.215763 2.7 2.74152)
(0.19183 2.7 2.7433)
(0.167883 2.7 2.74487)
(0.143924 2.7 2.74623)
(0.119953 2.7 2.74738)
(0.095973 2.7 2.74832)
(0.071987 2.7 2.74906)
(0.047994 2.7 2.74958)
(0.023998 2.7 2.74989)
(2.47168 3.43237 1.20552)
(2.48211 3.43237 1.18391)
(2.49235 3.43237 1.1622)
(2.50239 3.43237 1.14041)
(2.51225 3.43237 1.11853)
(2.52191 3.43237 1.09656)
(2.53139 3.43237 1.07451)
(2.54067 3.43237 1.05238)
(2.54976 3.43237 1.03017)
(2.55865 3.43237 1.00788)
(2.56735 3.43237 0.985512)
(2.57585 3.43237 0.96307)
(2.58415 3.43237 0.940556)
(2.59226 3.43237 0.917969)
(2.60018 3.43237 0.895312)
(2.60789 3.43237 0.872588)
(2.6154 3.43237 0.849797)
(2.62272 3.43237 0.826941)
(2.62984 3.43237 0.804022)
(2.63675 3.43237 0.781042)
(2.64347 3.43237 0.758003)
(2.64998 3.43237 0.734906)
(2.6563 3.43237 0.711752)
(2.66241 3.43237 0.688545)
(2.66831 3.43237 0.665285)
(2.67402 3.43237 0.641975)
(2.67952 3.43237 0.618615)
(2.68481 3.43237 0.595209)
(2.68991 3.43237 0.571757)
(2.69479 3.43237 0.548262)
(2.69947 3.43237 0.524725)
(2.70395 3.43237 0.501148)
(2.70822 3.43237 0.477532)
(2.71229 3.43237 0.453881)
(2.71614 3.43237 0.430195)
(2.71979 3.43237 0.406476)
(2.72324 3.43237 0.382726)
(2.72647 3.43237 0.358947)
(2.7295 3.43237 0.335141)
(2.73232 3.43237 0.311309)
(2.73494 3.43237 0.287453)
(2.73734 3.43237 0.263576)
(2.73954 3.43237 0.239678)
(2.74152 3.43237 0.215763)
(2.7433 3.43237 0.19183)
(2.74487 3.43237 0.167883)
(2.74623 3.43237 0.143924)
(2.74738 3.43237 0.119953)
(2.74832 3.43237 0.095973)
(2.74906 3.43237 0.071987)
(2.74958 3.43237 0.047994)
(2.74989 3.43237 0.023998)
(2.75 3.43237 0)
(2.74989 3.43237 -0.023998)
(2.74958 3.43237 -0.047994)
(2.74906 3.43237 -0.071987)
(2.74832 3.43237 -0.095973)
(2.74738 3.43237 -0.119953)
(2.74623 3.43237 -0.143924)
(2.74487 3.43237 -0.167883)
(2.7433 3.43237 -0.19183)
(2.74152 3.43237 -0.215763)
(2.73954 3.43237 -0.239678)
(2.73734 3.43237 -0.263576)
(2.73494 3.43237 -0.287453)
(2.73232 3.43237 -0.311309)
(2.7295 3.43237 -0.335141)
(2.72647 3.43237 -0.358947)
(2.72324 3.43237 -0.382726)
(2.71979 3.43237 -0.406476)
(2.71614 3.43237 -0.430195)
(2.71229 3.43237 -0.453881)
(2.70822 3.43237 -0.477532)
(2.70395 3.43237 -0.501148)
(2.69947 3.43237 -0.524725)
(2.69479 3.43237 -0.548262)
(2.68991 3.43237 -0.571757)
(2.68481 3.43237 -0.595209)
(2.67952 3.43237 -0.618615)
(2.67402 3.43237 -0.641975)
(2.66831 3.43237 -0.665285)
(0.595209 3.43237 -2.68481)
(0.571757 3.43237 -2.68991)
(0.618615 3.43237 -2.67952)
(0.641975 3.43237 -2.67402)
(0.665285 3.43237 -2.66831)
(0.688545 3.43237 -2.66241)
(0.711752 3.43237 -2.6563)
(0.734906 3.43237 -2.64998)
(0.758003 3.43237 -2.64347)
(0.781042 3.43237 -2.63675)
(0.804022 3.43237 -2.62984)
(0.826941 3.43237 -2.62272)
(0.849797 3.43237 -2.6154)
(0.872588 3.43237 -2.60789)
(0.895312 3.43237 -2.60018)
(0.917969 3.43237 -2.59226)
(0.940556 3.43237 -2.58415)
(0.96307 3.43237 -2.57585)
(0.985512 3.43237 -2.56735)
(1.00788 3.43237 -2.55865)
(1.03017 3.43237 -2.54976)
(1.05238 3.43237 -2.54067)
(1.07451 3.43237 -2.53139)
(1.09656 3.43237 -2.52191)
(1.11853 3.43237 -2.51225)
(1.14041 3.43237 -2.50239)
(1.1622 3.43237 -2.49235)
(1.18391 3.43237 -2.48211)
(1.20552 3.43237 -2.47168)
(1.22704 3.43237 -2.46107)
(1.24847 3.43237 -2.45027)
(1.26981 3.43237 -2.43928)
(1.29105 3.43237 -2.42811)
(1.31219 3.43237 -2.41675)
(1.33323 3.43237 -2.4052)
(1.35417 3.43237 -2.39348)
(1.375 3.43237 -2.38157)
(1.39573 3.43237 -2.36948)
(1.41636 3.43237 -2.35721)
(1.43687 3.43237 -2.34476)
(1.45728 3.43237 -2.33213)
(1.47757 3.43237 -2.31933)
(1.49776 3.43237 -2.30634)
(1.51783 3.43237 -2.29319)
(1.53778 3.43237 -2.27985)
(1.55762 3.43237 -2.26635)
(1.57733 3.43237 -2.25267)
(1.59693 3.43237 -2.23882)
(1.61641 3.43237 -2.2248)
(1.63576 3.43237 -2.21061)
(1.65499 3.43237 -2.19625)
(1.67409 3.43237 -2.18172)
(1.69307 3.43237 -2.16703)
(1.71192 3.43237 -2.15217)
(1.73063 3.43237 -2.13715)
(1.74921 3.43237 -2.12197)
(1.76767 3.43237 -2.10662)
(1.78598 3.43237 -2.09112)
(1.80416 3.43237 -2.07545)
(1.82221 3.43237 -2.05963)
(1.84011 3.43237 -2.04365)
(1.85787 3.43237 -2.02751)
(1.8755 3.43237 -2.01122)
(1.89298 3.43237 -1.99478)
(1.91031 3.43237 -1.97819)
(1.9275 3.43237 -1.96144)
(1.94454 3.43237 -1.94454)
(1.96144 3.43237 -1.9275)
(1.97819 3.43237 -1.91031)
(1.99478 3.43237 -1.89298)
(2.01122 3.43237 -1.87549)
(2.02751 3.43237 -1.85787)
(2.04365 3.43237 -1.84011)
(2.05963 3.43237 -1.82221)
(2.07545 3.43237 -1.80416)
(2.09112 3.43237 -1.78598)
(2.10662 3.43237 -1.76767)
(2.12197 3.43237 -1.74921)
(2.13715 3.43237 -1.73063)
(2.15217 3.43237 -1.71192)
(2.16703 3.43237 -1.69307)
(2.18172 3.43237 -1.67409)
(2.19625 3.43237 -1.65499)
(2.21061 3.43237 -1.63576)
(2.2248 3.43237 -1.61641)
(2.23882 3.43237 -1.59693)
(2.25267 3.43237 -1.57733)
(2.26635 3.43237 -1.55762)
(2.27985 3.43237 -1.53778)
(2.29319 3.43237 -1.51783)
(2.30634 3.43237 -1.49776)
(2.31933 3.43237 -1.47757)
(2.33213 3.43237 -1.45728)
(2.34476 3.43237 -1.43687)
(2.35721 3.43237 -1.41636)
(2.36948 3.43237 -1.39573)
(2.38157 3.43237 -1.375)
(2.39348 3.43237 -1.35417)
(2.40521 3.43237 -1.33323)
(2.41675 3.43237 -1.31219)
(2.42811 3.43237 -1.29105)
(2.43928 3.43237 -1.26981)
(2.45027 3.43237 -1.24847)
(2.46107 3.43237 -1.22704)
(2.47168 3.43237 -1.20552)
(2.48211 3.43237 -1.18391)
(2.49235 3.43237 -1.1622)
(2.50239 3.43237 -1.14041)
(2.51225 3.43237 -1.11853)
(2.52191 3.43237 -1.09656)
(2.53139 3.43237 -1.07451)
(2.54067 3.43237 -1.05238)
(2.54976 3.43237 -1.03017)
(2.55865 3.43237 -1.00788)
(2.56735 3.43237 -0.985512)
(2.57585 3.43237 -0.96307)
(2.58415 3.43237 -0.940556)
(2.59226 3.43237 -0.917969)
(2.60018 3.43237 -0.895312)
(2.60789 3.43237 -0.872588)
(2.6154 3.43237 -0.849797)
(2.62272 3.43237 -0.826941)
(2.62984 3.43237 -0.804022)
(2.63675 3.43237 -0.781042)
(2.64347 3.43237 -0.758003)
(2.64998 3.43237 -0.734906)
(2.6563 3.43237 -0.711752)
(2.66241 3.43237 -0.688545)
(-2.15217 3.43237 -1.71192)
(-2.16703 3.43237 -1.69307)
(-2.13715 3.43237 -1.73063)
(-2.12197 3.43237 -1.74921)
(-2.10662 3.43237 -1.76767)
(-2.09112 3.43237 -1.78598)
(-2.07545 3.43237 -1.80416)
(-2.05963 3.43237 -1.82221)
(-2.04365 3.43237 -1.84011)
(-2.02751 3.43237 -1.85787)
(-2.01122 3.43237 -1.87549)
(-1.99478 3.43237 -1.89298)
(-1.97819 3.43237 -1.91031)
(-1.96144 3.43237 -1.9275)
(-1.94454 3.43237 -1.94454)
(-1.9275 3.43237 -1.96144)
(-1.91031 3.43237 -1.97819)
(-1.89298 3.43237 -1.99478)
(-1.87549 3.43237 -2.01122)
(-1.85787 3.43237 -2.02751)
(-1.84011 3.43237 -2.04365)
(-1.82221 3.43237 -2.05963)
(-1.80416 3.43237 -2.07545)
(-1.78598 3.43237 -2.09112)
(-1.76767 3.43237 -2.10662)
(-1.74921 3.43237 -2.12197)
(-1.73063 3.43237 -2.13715)
(-1.71192 3.43237 -2.15217)
(-1.69307 3.43237 -2.16703)
(-1.67409 3.43237 -2.18172)
(-1.65499 3.43237 -2.19625)
(-1.63576 3.43237 -2.21061)
(-1.61641 3.43237 -2.2248)
(-1.59693 3.43237 -2.23882)
(-1.57733 3.43237 -2.25267)
(-1.55762 3.43237 -2.26635)
(-1.53778 3.43237 -2.27985)
(-1.51783 3.43237 -2.29319)
(-1.49776 3.43237 -2.30634)
(-1.47757 3.43237 -2.31933)
(-1.45728 3.43237 -2.33213)
(-1.43687 3.43237 -2.34476)
(-1.41636 3.43237 -2.35721)
(-1.39573 3.43237 -2.36948)
(-1.375 3.43237 -2.38157)
(-1.35417 3.43237 -2.39348)
(-1.33323 3.43237 -2.4052)
(-1.31219 3.43237 -2.41675)
(-1.29105 3.43237 -2.42811)
(-1.26981 3.43237 -2.43928)
(-1.24847 3.43237 -2.45027)
(-1.22704 3.43237 -2.46107)
(-1.20552 3.43237 -2.47168)
(-1.18391 3.43237 -2.48211)
(-1.1622 3.43237 -2.49235)
(-1.14041 3.43237 -2.50239)
(-1.11853 3.43237 -2.51225)
(-1.09656 3.43237 -2.52191)
(-1.07451 3.43237 -2.53139)
(-1.05238 3.43237 -2.54067)
(-1.03017 3.43237 -2.54976)
(-1.00788 3.43237 -2.55865)
(-0.985512 3.43237 -2.56735)
(-0.96307 3.43237 -2.57585)
(-0.940556 3.43237 -2.58415)
(-0.917969 3.43237 -2.59226)
(-0.895312 3.43237 -2.60018)
(-0.872588 3.43237 -2.60789)
(-0.849797 3.43237 -2.6154)
(-0.826941 3.43237 -2.62272)
(-0.804022 3.43237 -2.62984)
(-0.781042 3.43237 -2.63675)
(-0.758003 3.43237 -2.64347)
(-0.734906 3.43237 -2.64998)
(-0.711752 3.43237 -2.6563)
(-0.688545 3.43237 -2.66241)
(-0.665285 3.43237 -2.66831)
(-0.641975 3.43237 -2.67402)
(-0.618615 3.43237 -2.67952)
(-0.595209 3.43237 -2.68481)
(-0.571757 3.43237 -2.68991)
(-0.548262 3.43237 -2.69479)
(-0.524725 3.43237 -2.69948)
(-0.501148 3.43237 -2.70395)
(-0.477532 3.43237 -2.70822)
(-0.453881 3.43237 -2.71229)
(-0.430195 3.43237 -2.71614)
(-0.406476 3.43237 -2.71979)
(-0.382726 3.43237 -2.72324)
(-0.358947 3.43237 -2.72647)
(-0.335141 3.43237 -2.7295)
(-0.311309 3.43237 -2.73232)
(-0.287453 3.43237 -2.73494)
(-0.263576 3.43237 -2.73734)
(-0.239678 3.43237 -2.73954)
(-0.215763 3.43237 -2.74152)
(-0.19183 3.43237 -2.7433)
(-0.167883 3.43237 -2.74487)
(-0.143924 3.43237 -2.74623)
(-0.119953 3.43237 -2.74738)
(-0.095973 3.43237 -2.74832)
(-0.071987 3.43237 -2.74906)
(-0.047994 3.43237 -2.74958)
(-0.023998 3.43237 -2.74989)
(0 3.43237 -2.75)
(0.023998 3.43237 -2.74989)
(0.047994 3.43237 -2.74958)
(0.071987 3.43237 -2.74906)
(0.095973 3.43237 -2.74832)
(0.119953 3.43237 -2.74738)
(0.143924 3.43237 -2.74623)
(0.167883 3.43237 -2.74487)
(0.19183 3.43237 -2.7433)
(0.215763 3.43237 -2.74152)
(0.239678 3.43237 -2.73954)
(0.263576 3.43237 -2.73734)
(0.287453 3.43237 -2.73494)
(0.311309 3.43237 -2.73232)
(0.335141 3.43237 -2.7295)
(0.358947 3.43237 -2.72647)
(0.382726 3.43237 -2.72324)
(0.406476 3.43237 -2.71979)
(0.430195 3.43237 -2.71614)
(0.453881 3.43237 -2.71229)
(0.477532 3.43237 -2.70822)
(0.501148 3.43237 -2.70395)
(0.524725 3.43237 -2.69948)
(0.548262 3.43237 -2.69479)
(-2.48211 3.43237 1.18391)
(-2.47168 3.43237 1.20552)
(-2.49235 3.43237 1.1622)
(-2.50239 3.43237 1.14041)
(-2.51225 3.43237 1.11853)
(-2.52191 3.43237 1.09656)
(-2.53139 3.43237 1.07451)
(-2.54067 3.43237 1.05238)
(-2.54976 3.43237 1.03017)
(-2.55865 3.43237 1.00788)
(-2.56735 3.43237 0.985512)
(-2.57585 3.43237 0.96307)
(-2.58415 3.43237 0.940556)
(-2.59226 3.43237 0.917969)
(-2.60018 3.43237 0.895312)
(-2.60789 3.43237 0.872588)
(-2.6154 3.43237 0.849797)
(-2.62272 3.43237 0.826941)
(-2.62984 3.43237 0.804022)
(-2.63675 3.43237 0.781042)
(-2.64347 3.43237 0.758003)
(-2.64998 3.43237 0.734906)
(-2.6563 3.43237 0.711752)
(-2.66241 3.43237 0.688545)
(-2.66831 3.43237 0.665285)
(-2.67402 3.43237 0.641975)
(-2.67952 3.43237 0.618615)
(-2.68481 3.43237 0.595209)
(-2.68991 3.43237 0.571757)
(-2.69479 3.43237 0.548262)
(-2.69948 3.43237 0.524725)
(-2.70395 3.43237 0.501148)
(-2.70822 3.43237 0.477532)
(-2.71229 3.43237 0.453881)
(-2.71614 3.43237 0.430195)
(-2.71979 3.43237 0.406476)
(-2.72324 3.43237 0.382726)
(-2.72647 3.43237 0.358947)
(-2.7295 3.43237 0.335141)
(-2.73232 3.43237 0.311309)
(-2.73494 3.43237 0.287453)
(-2.73734 3.43237 0.263576)
(-2.73954 3.43237 0.239678)
(-2.74152 3.43237 0.215763)
(-2.7433 3.43237 0.19183)
(-2.74487 3.43237 0.167883)
(-2.74623 3.43237 0.143924)
(-2.74738 3.43237 0.119953)
(-2.74832 3.43237 0.095973)
(-2.74906 3.43237 0.071987)
(-2.74958 3.43237 0.047994)
(-2.74989 3.43237 0.023998)
(-2.75 3.43237 0)
(-2.74989 3.43237 -0.023998)
(-2.74958 3.43237 -0.047994)
(-2.74906 3.43237 -0.071987)
(-2.74832 3.43237 -0.095973)
(-2.74738 3.43237 -0.119953)
(-2.74623 3.43237 -0.143924)
(-2.74487 3.43237 -0.167883)
(-2.7433 3.43237 -0.19183)
(-2.74152 3.43237 -0.215763)
(-2.73954 3.43237 -0.239678)
(-2.73734 3.43237 -0.263576)
(-2.73494 3.43237 -0.287453)
(-2.73232 3.43237 -0.311309)
(-2.7295 3.43237 -0.335141)
(-2.72647 3.43237 -0.358947)
(-2.72324 3.43237 -0.382726)
(-2.71979 3.43237 -0.406476)
(-2.71614 3.43237 -0.430195)
(-2.71229 3.43237 -0.453881)
(-2.70822 3.43237 -0.477532)
(-2.70395 3.43237 -0.501148)
(-2.69948 3.43237 -0.524725)
(-2.69479 3.43237 -0.548262)
(-2.68991 3.43237 -0.571757)
(-2.68481 3.43237 -0.595209)
(-2.67952 3.43237 -0.618615)
(-2.67402 3.43237 -0.641975)
(-2.66831 3.43237 -0.665285)
(-2.66241 3.43237 -0.688545)
(-2.6563 3.43237 -0.711752)
(-2.64998 3.43237 -0.734906)
(-2.64347 3.43237 -0.758003)
(-2.63675 3.43237 -0.781042)
(-2.62984 3.43237 -0.804022)
(-2.62272 3.43237 -0.826941)
(-2.6154 3.43237 -0.849797)
(-2.60789 3.43237 -0.872588)
(-2.60018 3.43237 -0.895312)
(-2.59226 3.43237 -0.917969)
(-2.58415 3.43237 -0.940556)
(-2.57585 3.43237 -0.96307)
(-2.56735 3.43237 -0.985512)
(-2.55865 3.43237 -1.00788)
(-2.54976 3.43237 -1.03017)
(-2.54067 3.43237 -1.05238)
(-2.53139 3.43237 -1.07451)
(-2.52191 3.43237 -1.09656)
(-2.51225 3.43237 -1.11853)
(-2.50239 3.43237 -1.14041)
(-2.49235 3.43237 -1.1622)
(-2.48211 3.43237 -1.18391)
(-2.47168 3.43237 -1.20552)