/*--------------------------------*- C++ -*----------------------------------*\
| =========                 |                                                 |
| \\      /  F ield         | OpenFOAM: The Open Source CFD Toolbox           |
|  \\    /   O peration     | Version:  v2012                                 |
|   \\  /    A nd           | Website:  www.openfoam.com                      |
|    \\/     M anipulation  |                                                 |
\*---------------------------------------------------------------------------*/
FoamFile
{
    version     2.0;
    format      ascii;
    class       extendedFeatureEdgeMesh;
    location    "constant/extendedFeatureEdgeMesh";
    object      tornadoSimulatorSLMask.extendedFeatureEdgeMesh;
}
// * * * * * * * * * * * * * * * * * * * * * * * * * * * * * * * * * * * * * //

// points

13240
(
(3.00834 4.75 -3.99373)
(6.01667 4.75 -7.98747)
(5.94685 4.75 -8.03959)
(0.150482 4.75 4.99773)
(0.300964 4.75 9.99547)
(0.388047 4.75 9.99247)
(-0.502155 4.75 4.97472)
(-1.00431 4.75 9.94944)
(-0.91758 4.75 9.95781)
(0.454846 4.75 4.97927)
(0.909692 4.75 9.95854)
(0.996429 4.75 9.95023)
(4.02685 4.75 2.96386)
(8.0537 4.75 5.92773)
(8.10504 4.75 5.85733)
(4.9873 4.75 -0.356157)
(9.9746 4.75 -0.712315)
(9.96801 4.75 -0.799199)
(-3.33692 4.75 9.42672)
(-3.29585 4.75 9.44126)
(0 4.75 0)
(-3.41893 4.75 9.39729)
(-3.37799 4.75 9.41218)
(0 4.75 0)
(-1.64792 4.75 4.72063)
(-3.29585 4.75 9.44126)
(-3.21346 4.75 9.46962)
(-1.56541 4.75 4.74863)
(-3.21346 4.75 9.46962)
(-1.52398 4.75 4.76209)
(-3.13082 4.75 9.49726)
(-1.52398 4.75 4.76209)
(-3.04795 4.75 9.52418)
(-2.96485 4.75 9.55038)
(-1.44076 4.75 4.78792)
(-2.96485 4.75 9.55038)
(-1.39899 4.75 4.8003)
(-2.88152 4.75 9.57585)
(-1.23086 4.75 4.84613)
(-2.54608 4.75 9.67044)
(-0.718345 4.75 4.94813)
(-1.43669 4.75 9.89626)
(-1.35041 4.75 9.9084)
(-0.63201 4.75 4.9599)
(-1.35041 4.75 9.9084)
(-0.45879 4.75 4.97891)
(-0.91758 4.75 9.95781)
(-0.830779 4.75 9.96543)
(-0.371958 4.75 4.98614)
(-0.830779 4.75 9.96543)
(-0.328498 4.75 4.9892)
(-0.743916 4.75 9.97229)
(-0.26533 4.75 9.99638)
(-0.221779 4.75 9.99754)
(0 4.75 0)
(-0.352422 4.75 9.99369)
(-0.308882 4.75 9.99523)
(0 4.75 0)
(0.194024 4.75 4.99623)
(0.388047 4.75 9.99247)
(0.4751 4.75 9.98871)
(0.281058 4.75 4.99209)
(0.4751 4.75 9.98871)
(0.324545 4.75 4.98946)
(0.562117 4.75 9.98419)
(0.498215 4.75 4.97512)
(0.996429 4.75 9.95023)
(1.08309 4.75 9.94117)
(0.584835 4.75 4.96568)
(1.08309 4.75 9.94117)
(0.628081 4.75 4.96039)
(1.16967 4.75 9.93136)
(5.03763 4.75 -8.63831)
(5 4.75 -8.66025)
(0 4.75 0)
(5.11271 4.75 -8.59408)
(5.07527 4.75 -8.61636)
(0 4.75 0)
(0 4.75 -5)
(0 4.75 -10)
(-0.087133 4.75 -9.99962)
(-0.08713 4.75 -4.99924)
(-0.087133 4.75 -9.99962)
(-4.16531 4.75 -2.7659)
(-8.33062 4.75 -5.5318)
(-8.3785 4.75 -5.45901)
(-1.97272 4.75 4.59439)
(-3.94544 4.75 9.18877)
(-3.86522 4.75 9.2228)
(-1.89236 4.75 4.62807)
(-3.86522 4.75 9.2228)
(-1.85196 4.75 4.64438)
(-3.78471 4.75 9.25613)
(-1.39899 4.75 4.8003)
(-2.79797 4.75 9.60059)
(-2.71421 4.75 9.62461)
(-1.31513 4.75 4.82395)
(-2.71421 4.75 9.62461)
(-1.27304 4.75 4.83522)
(-2.63025 4.75 9.64789)
(-0.63201 4.75 4.9599)
(-1.26402 4.75 9.91979)
(-1.17754 4.75 9.93043)
(-0.545483 4.75 4.97016)
(-1.17754 4.75 9.93043)
(-0.502155 4.75 4.97472)
(-1.09096 4.75 9.94031)
(-0.328498 4.75 4.9892)
(-0.656996 4.75 9.97839)
(-0.570025 4.75 9.98374)
(-0.241506 4.75 4.99416)
(-0.570025 4.75 9.98374)
(-0.197981 4.75 4.99608)
(-0.483012 4.75 9.98833)
(0.324545 4.75 4.98946)
(0.649091 4.75 9.97891)
(0.736016 4.75 9.97288)
(0.411443 4.75 4.98304)
(0.736016 4.75 9.97288)
(0.454846 4.75 4.97927)
(0.822886 4.75 9.96608)
(0.628081 4.75 4.96039)
(1.25616 4.75 9.92079)
(1.34256 4.75 9.90947)
(0.714425 4.75 4.9487)
(1.34256 4.75 9.90947)
(0.757518 4.75 4.94228)
(1.42885 4.75 9.89739)
(0.757518 4.75 4.94228)
(1.51504 4.75 9.88457)
(1.60111 4.75 9.87099)
(0.843527 4.75 4.92833)
(1.60111 4.75 9.87099)
(0.886437 4.75 4.9208)
(1.68705 4.75 9.85667)
(4.78449 4.75 1.45213)
(9.56897 4.75 2.90427)
(9.59391 4.75 2.82078)
(4.99668 4.75 -0.18215)
(9.99336 4.75 -0.3643)
(9.98981 4.75 -0.451362)
(2.97342 4.75 -4.01979)
(5.94685 4.75 -8.03959)
(5.87657 4.75 -8.0911)
(2.90292 4.75 -4.071)
(5.87657 4.75 -8.0911)
(2.86734 4.75 -4.09614)
(5.80585 4.75 -8.142)
(5.40908 4.75 -8.4107)
(5.37244 4.75 -8.43427)
(0 4.75 0)
(5.48216 4.75 -8.36325)
(5.44573 4.75 -8.38714)
(0 4.75 0)
(2.68622 4.75 -4.21713)
(5.37244 4.75 -8.43427)
(5.29874 4.75 -8.48076)
(2.61232 4.75 -4.2633)
(5.29874 4.75 -8.48076)
(2.57508 4.75 -4.2859)
(5.22465 4.75 -8.52661)
(-1.85196 4.75 4.64438)
(-3.70392 4.75 9.28876)
(-3.62284 4.75 9.32068)
(-1.77075 4.75 4.67594)
(-3.62284 4.75 9.32068)
(-1.72994 4.75 4.6912)
(-3.54149 4.75 9.35189)
(-1.23086 4.75 4.84613)
(-2.46172 4.75 9.69226)
(-2.37718 4.75 9.71334)
(-1.14623 4.75 4.86684)
(-2.37718 4.75 9.71334)
(-1.10378 4.75 4.87665)
(-2.29245 4.75 9.73369)
(2.12804 4.75 4.52454)
(4.25607 4.75 9.04908)
(4.33476 4.75 9.01165)
(4.12768 4.75 2.82174)
(8.25537 4.75 5.64348)
(8.30423 4.75 5.57134)
(4.17623 4.75 2.74938)
(8.30423 4.75 5.57134)
(4.20003 4.75 2.71289)
(8.35246 4.75 5.49877)
(9.75755 4.75 2.18821)
(9.76709 4.75 2.1457)
(0 4.75 0)
(9.73811 4.75 2.27315)
(9.74802 4.75 2.23073)
(0 4.75 0)
(9.99476 4.75 -0.320755)
(9.99336 4.75 -0.3643)
(0 4.75 0)
(4.9949 4.75 -0.225681)
(9.98981 4.75 -0.451362)
(9.9855 4.75 -0.538389)
(4.99021 4.75 -0.312688)
(9.9855 4.75 -0.538389)
(4.9873 4.75 -0.356157)
(9.98043 4.75 -0.625376)
(4.86041 4.75 -1.17319)
(9.72082 4.75 -2.34639)
(9.70001 4.75 -2.431)
(4.83923 4.75 -1.25771)
(9.70001 4.75 -2.431)
(4.82809 4.75 -1.29983)
(9.67846 4.75 -2.51543)
(4.71142 4.75 -1.67407)
(9.42284 4.75 -3.34815)
(9.39331 4.75 -3.43012)
(4.68153 4.75 -1.75592)
(9.39331 4.75 -3.43012)
(4.66605 4.75 -1.79665)
(9.36306 4.75 -3.51184)
(3.71413 4.75 -3.34742)
(7.42827 4.75 -6.69484)
(7.36965 4.75 -6.75931)
(-2.71954 4.75 -4.19572)
(-5.43908 4.75 -8.39145)
(-5.51199 4.75 -8.34374)
(-3.62264 4.75 -3.44622)
(-7.24529 4.75 -6.89245)
(-7.30507 4.75 -6.82905)
(-4.54621 4.75 -2.08133)
(-9.09243 4.75 -4.16266)
(-9.12835 4.75 -4.08328)
(-4.79133 4.75 -1.42938)
(-9.58267 4.75 -2.85876)
(-9.60721 4.75 -2.77515)
(-4.81552 4.75 -1.34567)
(-9.60721 4.75 -2.77515)
(-4.82706 4.75 -1.30366)
(-9.63103 4.75 -2.69134)
(-4.95579 4.75 -0.663428)
(-9.91158 4.75 -1.32686)
(-9.92277 4.75 -1.24044)
(-4.99859 4.75 0.118809)
(-9.99718 4.75 0.237617)
(-9.99473 4.75 0.324717)
(-4.99141 4.75 0.292921)
(-9.98282 4.75 0.585841)
(-9.97734 4.75 0.672803)
(-4.98555 4.75 0.379857)
(-9.97734 4.75 0.672803)
(-4.96929 4.75 0.553356)
(-9.94784 4.75 1.02007)
(-4.96929 4.75 0.553356)
(-9.93857 4.75 1.10671)
(-9.92855 4.75 1.19327)
(-4.95889 4.75 0.639867)
(-9.92855 4.75 1.19327)
(-4.95312 4.75 0.683051)
(-9.91778 4.75 1.27973)
(-4.86502 4.75 1.15394)
(-9.73004 4.75 2.30787)
(-9.70956 4.75 2.39256)
(-4.84417 4.75 1.23854)
(-9.70956 4.75 2.39256)
(-4.8332 4.75 1.2807)
(-9.68835 4.75 2.47708)
(-4.79807 4.75 1.40659)
(-9.59615 4.75 2.81318)
(-9.57127 4.75 2.89669)
(-4.77283 4.75 1.48999)
(-9.57127 4.75 2.89669)
(-4.77283 4.75 1.48999)
(-9.54567 4.75 2.97998)
(-9.51934 4.75 3.06304)
(-4.74614 4.75 1.57293)
(-9.51934 4.75 3.06304)
(-4.73226 4.75 1.61423)
(-9.49229 4.75 3.14587)
(-4.73226 4.75 1.61423)
(-9.46452 4.75 3.22846)
(-9.43603 4.75 3.3108)
(-4.70341 4.75 1.69645)
(-9.43603 4.75 3.3108)
(-4.68845 4.75 1.73737)
(-9.40682 4.75 3.39289)
(-1.10378 4.75 4.87665)
(-2.20755 4.75 9.75329)
(-2.12249 4.75 9.77216)
(-1.01863 4.75 4.89514)
(-2.12249 4.75 9.77216)
(-0.975937 4.75 4.90383)
(-2.03726 4.75 9.79028)
(-0.975937 4.75 4.90383)
(-1.95188 4.75 9.80766)
(-1.86634 4.75 9.82429)
(-0.890335 4.75 4.92009)
(-1.86634 4.75 9.82429)
(-0.847431 4.75 4.92766)
(-1.78067 4.75 9.84018)
(-0.110889 4.75 4.99877)
(-0.221779 4.75 9.99754)
(-0.134658 4.75 9.99909)
(-0.023764 4.75 4.99994)
(-0.134658 4.75 9.99909)
(0.019803 4.75 4.99996)
(-0.047527 4.75 9.99989)
(0.019803 4.75 4.99996)
(0.039606 4.75 9.99992)
(0.126738 4.75 9.9992)
(0.10693 4.75 4.99886)
(0.126738 4.75 9.9992)
(0.150482 4.75 4.99773)
(0.21386 4.75 9.99771)
(4.79696 4.75 1.41039)
(9.59391 4.75 2.82078)
(9.61813 4.75 2.73708)
(4.82081 4.75 1.32658)
(9.61813 4.75 2.73708)
(4.83218 4.75 1.28453)
(9.64161 4.75 2.65317)
(4.83218 4.75 1.28453)
(9.66436 4.75 2.56906)
(9.68638 4.75 2.48475)
(4.85383 4.75 1.20013)
(9.68638 4.75 2.48475)
(4.86411 4.75 1.15779)
(9.70766 4.75 2.40026)
(4.88354 4.75 1.07285)
(9.76709 4.75 2.1457)
(9.78541 4.75 2.06052)
(4.9015 4.75 0.987588)
(9.78541 4.75 2.06052)
(4.90992 4.75 0.944842)
(9.80299 4.75 1.97518)
(4.90992 4.75 0.944842)
(9.81983 4.75 1.88968)
(9.83592 4.75 1.80405)
(4.92563 4.75 0.859138)
(9.83592 4.75 1.80405)
(4.93293 4.75 0.816187)
(9.85127 4.75 1.71828)
(4.98401 4.75 -0.3996)
(9.96801 4.75 -0.799199)
(9.96067 4.75 -0.886024)
(4.97629 4.75 -0.48639)
(9.96067 4.75 -0.886024)
(4.97186 4.75 -0.529732)
(9.95257 4.75 -0.97278)
(4.97186 4.75 -0.529732)
(9.94372 4.75 -1.05946)
(9.93411 4.75 -1.14607)
(4.96187 4.75 -0.616291)
(9.93411 4.75 -1.14607)
(4.95632 4.75 -0.659502)
(9.92375 4.75 -1.23258)
(4.82809 4.75 -1.29983)
(9.65618 4.75 -2.59967)
(9.63316 4.75 -2.6837)
(4.80471 4.75 -1.38377)
(9.63316 4.75 -2.6837)
(4.79246 4.75 -1.42558)
(9.60941 4.75 -2.76754)
(4.79246 4.75 -1.42558)
(9.58493 4.75 -2.85116)
(9.55972 4.75 -2.93457)
(4.76689 4.75 -1.50888)
(9.55972 4.75 -2.93457)
(4.75357 4.75 -1.55036)
(9.53379 4.75 -3.01776)
(4.75357 4.75 -1.55036)
(9.50713 4.75 -3.10072)
(9.47975 4.75 -3.18344)
(4.72583 4.75 -1.63296)
(9.47975 4.75 -3.18344)
(4.71142 4.75 -1.67407)
(9.45166 4.75 -3.26592)
(3.68483 4.75 -3.37965)
(7.36965 4.75 -6.75931)
(7.31047 4.75 -6.82327)
(3.62537 4.75 -3.44335)
(7.31047 4.75 -6.82327)
(3.59523 4.75 -3.47481)
(7.25074 4.75 -6.88671)
(3.59523 4.75 -3.47481)
(7.19046 4.75 -6.94962)
(7.12964 4.75 -7.01201)
(3.53413 4.75 -3.53693)
(7.12964 4.75 -7.01201)
(3.50318 4.75 -3.56759)
(7.06827 4.75 -7.07387)
(3.31196 4.75 -3.74579)
(6.62393 4.75 -7.49157)
(6.5584 4.75 -7.549)
(3.24619 4.75 -3.80293)
(6.5584 4.75 -7.549)
(3.21293 4.75 -3.83107)
(6.49237 4.75 -7.60586)
(3.21293 4.75 -3.83107)
(6.42585 4.75 -7.66214)
(6.35885 4.75 -7.71784)
(3.14568 4.75 -3.88648)
(6.35885 4.75 -7.71784)
(3.11169 4.75 -3.91374)
(6.29136 4.75 -7.77295)
(2.86734 4.75 -4.09614)
(5.73468 4.75 -8.19228)
(5.66308 4.75 -8.24194)
(2.79553 4.75 -4.14548)
(5.66308 4.75 -8.24194)
(2.7593 4.75 -4.16968)
(5.59105 4.75 -8.29097)
(-4.18925 4.75 -2.7295)
(-8.3785 4.75 -5.45901)
(-8.42575 4.75 -5.38579)
(-4.23618 4.75 -2.65609)
(-8.42575 4.75 -5.38579)
(-4.25916 4.75 -2.61908)
(-8.47236 4.75 -5.31217)
(-4.75234 4.75 -1.55412)
(-9.50467 4.75 -3.10825)
(-9.53139 4.75 -3.02531)
(-4.7787 4.75 -1.47107)
(-9.53139 4.75 -3.02531)
(-4.79133 4.75 -1.42938)
(-9.55739 4.75 -2.94214)
(-4.82706 4.75 -1.30366)
(-9.65411 4.75 -2.60731)
(-9.67647 4.75 -2.5231)
(-4.84904 4.75 -1.21934)
(-9.67647 4.75 -2.5231)
(-4.85948 4.75 -1.17704)
(-9.69808 4.75 -2.43868)
(-9.90561 4.75 -1.37001)
(-9.91158 4.75 -1.32686)
(0 4.75 0)
(-4.98702 4.75 -0.360108)
(-9.97403 4.75 -0.720216)
(-9.97993 4.75 -0.633281)
(-4.99253 4.75 -0.273149)
(-9.97993 4.75 -0.633281)
(-4.99736 4.75 0.162358)
(-9.99473 4.75 0.324717)
(-9.99152 4.75 0.411792)
(-4.99378 4.75 0.249418)
(-9.99152 4.75 0.411792)
(-4.99141 4.75 0.292921)
(-9.98755 4.75 0.498836)
(-4.8332 4.75 1.2807)
(-9.6664 4.75 2.5614)
(-9.64371 4.75 2.64553)
(-4.81015 4.75 1.36473)
(-9.64371 4.75 2.64553)
(-4.79807 4.75 1.40659)
(-9.62029 4.75 2.72946)
(-4.68845 4.75 1.73737)
(-9.3769 4.75 3.47473)
(-9.34627 4.75 3.5563)
(-4.65746 4.75 1.8188)
(-9.34627 4.75 3.5563)
(-4.64144 4.75 1.85932)
(-9.31493 4.75 3.6376)
(-4.48151 4.75 2.21721)
(-8.96303 4.75 4.43443)
(-8.92405 4.75 4.51236)
(-4.24875 4.75 2.63592)
(-8.54312 4.75 5.19761)
(-4.24875 4.75 2.63592)
(-8.49751 4.75 5.27185)
(-8.45125 4.75 5.34569)
(-4.20218 4.75 2.70956)
(-8.45125 4.75 5.34569)
(-4.17841 4.75 2.74607)
(-8.40435 4.75 5.41912)
(-3.69818 4.75 3.36503)
(-7.39636 4.75 6.73007)
(-7.33744 4.75 6.79426)
(-3.63898 4.75 3.42897)
(-7.33744 4.75 6.79426)
(-3.60897 4.75 3.46055)
(-7.27796 4.75 6.85793)
(-2.51713 4.75 4.32019)
(-5.03426 4.75 8.64038)
(-4.95878 4.75 8.68392)
(-2.21011 4.75 4.48502)
(-4.42022 4.75 8.97004)
(-4.3419 4.75 9.00821)
(-2.13162 4.75 4.52285)
(-4.3419 4.75 9.00821)
(-2.09213 4.75 4.54125)
(-4.26324 4.75 9.04571)
(-0.847431 4.75 4.92766)
(-1.69486 4.75 9.85533)
(-1.60892 4.75 9.86972)
(-0.761433 4.75 4.94168)
(-1.60892 4.75 9.86972)
(-0.718345 4.75 4.94813)
(-1.52286 4.75 9.88336)
(0.886437 4.75 4.9208)
(1.77287 4.75 9.84159)
(1.85856 4.75 9.82577)
(0.972053 4.75 4.9046)
(1.85856 4.75 9.82577)
(1.01475 4.75 4.89595)
(1.9441 4.75 9.8092)
(1.14237 4.75 4.86775)
(2.28474 4.75 9.7355)
(2.36948 4.75 9.71522)
(1.22702 4.75 4.8471)
(2.36948 4.75 9.71522)
(1.26921 4.75 4.83623)
(2.45405 4.75 9.69421)
(1.26921 4.75 4.83623)
(2.53842 4.75 9.67246)
(2.62261 4.75 9.64997)
(1.35329 4.75 4.81338)
(2.62261 4.75 9.64997)
(1.39518 4.75 4.8014)
(2.70659 4.75 9.62675)
(4.68464 4.75 8.83472)
(4.72313 4.75 8.81431)
(0 4.75 0)
(4.60749 4.75 8.8752)
(4.64615 4.75 8.85512)
(0 4.75 0)
(2.36157 4.75 4.40715)
(4.72313 4.75 8.81431)
(4.79976 4.75 8.77282)
(2.43801 4.75 4.36533)
(4.79976 4.75 8.77282)
(2.47595 4.75 4.34392)
(4.87601 4.75 8.73066)
(2.58864 4.75 4.27772)
(5.17729 4.75 8.55545)
(5.25164 4.75 8.51001)
(2.6628 4.75 4.23196)
(5.25164 4.75 8.51001)
(7.18213 4.75 6.9581)
(7.21245 4.75 6.9268)
(0 4.75 0)
(7.12123 4.75 7.02041)
(7.15182 4.75 6.98939)
(0 4.75 0)
(4.05252 4.75 2.92866)
(8.10504 4.75 5.85733)
(8.15577 4.75 5.78648)
(4.10294 4.75 2.8576)
(8.15577 4.75 5.78648)
(4.12768 4.75 2.82174)
(8.20588 4.75 5.7152)
(4.47975 4.75 2.22076)
(8.95951 4.75 4.44153)
(8.99787 4.75 4.36329)
(4.57223 4.75 2.02355)
(9.10884 4.75 4.12662)
(4.7167 4.75 1.65914)
(9.4334 4.75 3.31827)
(9.46196 4.75 3.23595)
(4.7449 4.75 1.57669)
(9.46196 4.75 3.23595)
(4.99937 4.75 0.07921)
(9.99874 4.75 0.15842)
(9.99975 4.75 0.071291)
(4.99999 4.75 -0.007921)
(9.99975 4.75 0.071291)
(4.88942 4.75 -1.04576)
(9.77883 4.75 -2.09151)
(9.76024 4.75 -2.17664)
(4.87045 4.75 -1.1308)
(9.76024 4.75 -2.17664)
(4.86041 4.75 -1.17319)
(9.7409 4.75 -2.2616)
(4.66605 4.75 -1.79665)
(9.33211 4.75 -3.59329)
(9.30045 4.75 -3.67447)
(4.63404 4.75 -1.87768)
(9.30045 4.75 -3.67447)
(4.6175 4.75 -1.91799)
(9.26807 4.75 -3.75537)
(9.07745 4.75 -4.19501)
(9.05917 4.75 -4.23456)
(0 4.75 0)
(9.11365 4.75 -4.11575)
(9.09572 4.75 -4.15546)
(0 4.75 0)
(4.41275 4.75 -2.35109)
(8.82551 4.75 -4.70217)
(8.7842 4.75 -4.7789)
(4.37111 4.75 -2.42763)
(8.7842 4.75 -4.7789)
(4.34979 4.75 -2.46562)
(8.74223 4.75 -4.85525)
(3.50318 4.75 -3.56759)
(7.00636 4.75 -7.13519)
(6.94392 4.75 -7.19597)
(3.44048 4.75 -3.6281)
(6.94392 4.75 -7.19597)
(3.40874 4.75 -3.65794)
(6.88096 4.75 -7.2562)
(3.40874 4.75 -3.65794)
(6.81747 4.75 -7.31588)
(6.75347 4.75 -7.375)
(3.34448 4.75 -3.71678)
(6.75347 4.75 -7.375)
(3.31196 4.75 -3.74579)
(6.68895 4.75 -7.43357)
(3.11169 4.75 -3.91374)
(6.22339 4.75 -7.82748)
(6.15495 4.75 -7.88141)
(3.04302 4.75 -3.96737)
(6.15495 4.75 -7.88141)
(3.00834 4.75 -3.99373)
(6.08604 4.75 -7.93474)
(-0.08713 4.75 -4.99924)
(-0.17426 4.75 -9.99848)
(-0.261374 4.75 -9.99658)
(-0.174233 4.75 -4.99696)
(-0.261374 4.75 -9.99658)
(-0.217767 4.75 -4.99526)
(-0.348467 4.75 -9.99393)
(-2.45873 4.75 -4.3537)
(-4.91746 4.75 -8.70739)
(-4.99314 4.75 -8.66421)
(-4.06639 4.75 -2.90937)
(-8.13279 4.75 -5.81874)
(-8.18318 4.75 -5.74765)
(-4.25916 4.75 -2.61908)
(-8.51832 4.75 -5.23815)
(-8.56364 4.75 -5.16373)
(-4.30415 4.75 -2.54446)
(-8.56364 4.75 -5.16373)
(-4.32616 4.75 -2.50686)
(-8.60831 4.75 -5.08891)
(-4.32616 4.75 -2.50686)
(-8.65232 4.75 -5.01371)
(-8.69568 4.75 -4.93813)
(-4.36919 4.75 -2.43109)
(-8.69568 4.75 -4.93813)
(-4.3902 4.75 -2.39293)
(-8.73838 4.75 -4.86218)
(-9.85186 4.75 -1.71436)
(-9.85933 4.75 -1.67144)
(0 4.75 0)
(-9.83654 4.75 -1.80014)
(-9.84439 4.75 -1.75728)
(0 4.75 0)
(-4.98555 4.75 0.379857)
(-9.9711 4.75 0.759713)
(-9.9641 4.75 0.846566)
(-4.97817 4.75 0.466677)
(-9.9641 4.75 0.846566)
(-4.97392 4.75 0.510036)
(-9.95635 4.75 0.933354)
(-4.95312 4.75 0.683051)
(-9.90625 4.75 1.3661)
(-9.89397 4.75 1.45237)
(-4.94047 4.75 0.76926)
(-9.89397 4.75 1.45237)
(-4.93358 4.75 0.812279)
(-9.88094 4.75 1.53852)
(-9.7958 4.75 2.01009)
(-9.78704 4.75 2.05276)
(0 4.75 0)
(-9.81294 4.75 1.92466)
(-9.80455 4.75 1.96741)
(0 4.75 0)
(-4.89352 4.75 1.02638)
(-9.78704 4.75 2.05276)
(-9.76878 4.75 2.13796)
(-4.87489 4.75 1.1115)
(-9.76878 4.75 2.13796)
(-4.86502 4.75 1.15394)
(-9.74978 4.75 2.223)
(-2.91902 4.75 4.05947)
(-5.83805 4.75 8.11894)
(-5.76708 4.75 8.1695)
(-2.84784 4.75 4.10972)
(-5.76708 4.75 8.1695)
(-2.84784 4.75 4.10972)
(-5.69568 4.75 8.21944)
(-5.62385 4.75 8.26876)
(-2.77579 4.75 4.15872)
(-5.62385 4.75 8.26876)
(-2.73945 4.75 4.18275)
(-5.55159 4.75 8.31745)
(-2.36506 4.75 4.40528)
(-4.73011 4.75 8.81056)
(-4.65317 4.75 8.85144)
(-2.09213 4.75 4.54125)
(-4.18426 4.75 9.08251)
(-4.10496 4.75 9.11862)
(-2.01268 4.75 4.57702)
(-4.10496 4.75 9.11862)
(-1.97272 4.75 4.59439)
(-4.02535 4.75 9.15404)
(1.01475 4.75 4.89595)
(2.0295 4.75 9.79189)
(2.11475 4.75 9.77383)
(1.09991 4.75 4.87752)
(2.11475 4.75 9.77383)
(1.14237 4.75 4.86775)
(2.19983 4.75 9.75504)
(2.16738 4.75 4.50583)
(4.33476 4.75 9.01165)
(4.41312 4.75 8.97354)
(2.24557 4.75 4.46737)
(4.41312 4.75 8.97354)
(2.28441 4.75 4.44764)
(4.49114 4.75 8.93475)
(2.47595 4.75 4.34392)
(4.9519 4.75 8.68784)
(5.02742 4.75 8.64437)
(2.55127 4.75 4.30012)
(5.02742 4.75 8.64437)
(2.58864 4.75 4.27772)
(5.10255 4.75 8.60023)
(3.60622 4.75 3.4634)
(7.21245 4.75 6.9268)
(7.27253 4.75 6.8637)
(3.66603 4.75 3.40003)
(7.27253 4.75 6.8637)
(3.69552 4.75 3.36796)
(7.33206 4.75 6.80007)
(4.29201 4.75 2.56488)
(8.539 4.75 5.20437)
(4.35759 4.75 2.45183)
(8.71517 4.75 4.90365)
(8.75756 4.75 4.82753)
(4.39965 4.75 2.37552)
(8.75756 4.75 4.82753)
(4.42018 4.75 2.33709)
(8.7993 4.75 4.75104)
(4.7449 4.75 1.57669)
(9.48979 4.75 3.15338)
(9.51691 4.75 3.07058)
(4.77165 4.75 1.49377)
(9.51691 4.75 3.07058)
(4.78449 4.75 1.45213)
(9.5433 4.75 2.98753)
(4.93293 4.75 0.816187)
(9.86587 4.75 1.63237)
(9.87972 4.75 1.54635)
(4.94641 4.75 0.730102)
(9.87972 4.75 1.54635)
(4.95258 4.75 0.686975)
(9.89282 4.75 1.4602)
(9.97365 4.75 0.724159)
(9.97681 4.75 0.680706)
(0 4.75 0)
(9.96696 4.75 0.811035)
(9.97049 4.75 0.767612)
(0 4.75 0)
(4.9884 4.75 0.340353)
(9.97681 4.75 0.680706)
(9.98236 4.75 0.593749)
(4.99358 4.75 0.253374)
(9.98236 4.75 0.593749)
(4.99559 4.75 0.209853)
(9.98715 4.75 0.506747)
(4.99999 4.75 -0.007921)
(9.99999 4.75 -0.015842)
(9.99947 4.75 -0.102975)
(4.9991 4.75 -0.09505)
(9.99947 4.75 -0.102975)
(4.99808 4.75 -0.138605)
(9.99819 4.75 -0.1901)
(4.95632 4.75 -0.659502)
(9.91263 4.75 -1.319)
(9.90076 4.75 -1.40533)
(4.94407 4.75 -0.745771)
(9.90076 4.75 -1.40533)
(4.93738 4.75 -0.788822)
(9.88814 4.75 -1.49154)
(4.6175 4.75 -1.91799)
(9.235 4.75 -3.83598)
(9.20123 4.75 -3.9163)
(4.58338 4.75 -1.99816)
(9.20123 4.75 -3.9163)
(4.56579 4.75 -2.03802)
(9.16675 4.75 -3.99633)
(4.52958 4.75 -2.11728)
(9.05917 4.75 -4.23456)
(9.02193 4.75 -4.31333)
(4.492 4.75 -2.19589)
(9.02193 4.75 -4.31333)
(4.4727 4.75 -2.23495)
(8.984 4.75 -4.39178)
(4.19141 4.75 -2.72618)
(8.43001 4.75 -5.37912)
(-1.54282 4.75 -4.75602)
(-3.08565 4.75 -9.51203)
(-3.16841 4.75 -9.48479)
(-1.62547 4.75 -4.72841)
(-3.16841 4.75 -9.48479)
(-1.7485 4.75 -4.68431)
(-3.497 4.75 -9.36862)
(-3.5785 4.75 -9.33779)
(-1.82987 4.75 -4.65313)
(-3.5785 4.75 -9.33779)
(-1.87034 4.75 -4.63701)
(-3.65973 4.75 -9.30626)
(-4.87943 4.75 -8.72865)
(-4.91746 4.75 -8.70739)
(0 4.75 0)
(-3.53133 4.75 -3.53973)
(-7.06266 4.75 -7.07946)
(-7.12408 4.75 -7.01766)
(-3.59248 4.75 -3.47766)
(-7.12408 4.75 -7.01766)
(-3.62264 4.75 -3.44622)
(-7.18496 4.75 -6.95531)
(-4.09159 4.75 -2.87383)
(-8.18318 4.75 -5.74765)
(-8.23295 4.75 -5.67613)
(-4.14105 4.75 -2.80209)
(-8.23295 4.75 -5.67613)
(-4.16531 4.75 -2.7659)
(-8.2821 4.75 -5.60418)
(-4.45125 4.75 -2.27736)
(-8.9025 4.75 -4.55472)
(-8.94185 4.75 -4.47698)
(-4.49026 4.75 -2.19945)
(-8.94185 4.75 -4.47698)
(-4.56418 4.75 -2.04164)
(-9.12835 4.75 -4.08328)
(-9.16359 4.75 -4.00359)
(-4.59906 4.75 -1.96179)
(-9.16359 4.75 -4.00359)
(-4.61598 4.75 -1.92165)
(-9.19812 4.75 -3.92359)
(-4.61598 4.75 -1.92165)
(-9.23196 4.75 -3.84329)
(-9.2651 4.75 -3.76271)
(-4.64877 4.75 -1.84092)
(-9.2651 4.75 -3.76271)
(-4.66463 4.75 -1.80034)
(-9.29753 4.75 -3.68183)
(-4.66463 4.75 -1.80034)
(-9.32926 4.75 -3.60068)
(-9.36028 4.75 -3.51926)
(-4.69529 4.75 -1.71878)
(-9.36028 4.75 -3.51926)
(-4.71009 4.75 -1.6778)
(-9.39059 4.75 -3.43756)
(-4.71009 4.75 -1.6778)
(-9.42019 4.75 -3.35561)
(-9.44907 4.75 -3.2734)
(-4.73862 4.75 -1.59547)
(-9.44907 4.75 -3.2734)
(-4.75234 4.75 -1.55412)
(-9.47723 4.75 -3.19095)
(-4.85948 4.75 -1.17704)
(-9.71896 4.75 -2.35409)
(-9.73911 4.75 -2.26932)
(-4.87925 4.75 -1.09218)
(-9.73911 4.75 -2.26932)
(-4.88859 4.75 -1.04963)
(-9.75851 4.75 -2.18437)
(-4.96138 4.75 -0.620221)
(-9.92277 4.75 -1.24044)
(-9.9332 4.75 -1.15393)
(-4.97144 4.75 -0.53367)
(-9.9332 4.75 -1.15393)
(-4.9759 4.75 -0.490332)
(-9.94288 4.75 -1.06734)
(-4.9759 4.75 -0.490332)
(-9.9518 4.75 -0.980664)
(-9.95997 4.75 -0.893913)
(-4.98369 4.75 -0.403548)
(-9.95997 4.75 -0.893913)
(-4.98702 4.75 -0.360108)
(-9.96738 4.75 -0.807096)
(-4.99253 4.75 -0.273149)
(-9.98507 4.75 -0.546299)
(-9.98945 4.75 -0.459274)
(-4.99653 4.75 -0.186108)
(-9.98945 4.75 -0.459274)
(-4.99797 4.75 -0.142564)
(-9.99307 4.75 -0.372215)
(-4.93358 4.75 0.812279)
(-9.86716 4.75 1.62456)
(-9.85263 4.75 1.71047)
(-4.91867 4.75 0.898129)
(-9.85263 4.75 1.71047)
(-4.91066 4.75 0.940952)
(-9.83735 4.75 1.79626)
(-4.64144 4.75 1.85932)
(-9.28288 4.75 3.71863)
(-9.25012 4.75 3.79937)
(-4.60833 4.75 1.93992)
(-9.25012 4.75 3.79937)
(-4.59126 4.75 1.97999)
(-9.21667 4.75 3.87983)
(-4.53793 4.75 2.09932)
(-9.07587 4.75 4.19864)
(-9.03894 4.75 4.27757)
(-4.50066 4.75 2.17808)
(-9.03894 4.75 4.27757)
(-4.48151 4.75 2.21721)
(-9.00133 4.75 4.35616)
(-4.46202 4.75 2.25618)
(-8.92405 4.75 4.51236)
(-8.88439 4.75 4.58995)
(-4.42203 4.75 2.33359)
(-8.88439 4.75 4.58995)
(-4.40153 4.75 2.37203)
(-8.84406 4.75 4.66718)
(-3.60897 4.75 3.46055)
(-7.21793 4.75 6.92109)
(-7.15735 4.75 6.98372)
(-3.54811 4.75 3.52291)
(-7.15735 4.75 6.98372)
(-3.51728 4.75 3.55369)
(-7.09623 4.75 7.04582)
(-2.73945 4.75 4.18275)
(-5.4789 4.75 8.3655)
(-5.4058 4.75 8.41293)
(-2.66615 4.75 4.22985)
(-5.4058 4.75 8.41293)
(-2.62919 4.75 4.25292)
(-5.33229 4.75 8.45971)
(-2.32658 4.75 4.42572)
(-4.65317 4.75 8.85144)
(-4.57586 4.75 8.89165)
(-2.24911 4.75 4.46559)
(-4.57586 4.75 8.89165)
(-2.21011 4.75 4.48502)
(-4.49821 4.75 8.93119)
(2.6628 4.75 4.23196)
(5.32559 4.75 8.46393)
(5.39914 4.75 8.4172)
(2.73614 4.75 4.18492)
(5.39914 4.75 8.4172)
(2.7725 4.75 4.16092)
(5.47227 4.75 8.36984)
(3.32381 4.75 3.73527)
(6.64763 4.75 7.47054)
(6.71247 4.75 7.41234)
(3.69552 4.75 3.36796)
(7.39103 4.75 6.73592)
(7.44944 4.75 6.67127)
(3.75365 4.75 3.30305)
(7.44944 4.75 6.67127)
(3.78228 4.75 3.27022)
(7.50729 4.75 6.6061)
(3.78228 4.75 3.27022)
(7.56457 4.75 6.54044)
(7.62127 4.75 6.47428)
(3.8387 4.75 3.20381)
(7.62127 4.75 6.47428)
(3.86647 4.75 3.17024)
(7.67739 4.75 6.40763)
(4.20003 4.75 2.71289)
(8.40006 4.75 5.42578)
(8.44701 4.75 5.35238)
(4.24666 4.75 2.63929)
(8.44701 4.75 5.35238)
(4.2695 4.75 2.60218)
(8.49333 4.75 5.27858)
(4.29201 4.75 2.56488)
(8.58402 4.75 5.12977)
(8.62839 4.75 5.05478)
(4.33606 4.75 2.4897)
(8.62839 4.75 5.05478)
(4.35759 4.75 2.45183)
(8.67211 4.75 4.97941)
(4.42018 4.75 2.33709)
(8.84036 4.75 4.67419)
(8.88075 4.75 4.59698)
(4.46024 4.75 2.25971)
(8.88075 4.75 4.59698)
(4.47975 4.75 2.22076)
(8.92047 4.75 4.51942)
(4.49894 4.75 2.18165)
(8.99787 4.75 4.36329)
(9.03555 4.75 4.28472)
(4.53627 4.75 2.10292)
(9.03555 4.75 4.28472)
(4.55442 4.75 2.06331)
(9.07254 4.75 4.20583)
(4.57223 4.75 2.02355)
(9.14445 4.75 4.04709)
(9.17937 4.75 3.96726)
(4.60679 4.75 1.94356)
(9.17937 4.75 3.96726)
(4.62355 4.75 1.90335)
(9.21359 4.75 3.88713)
(4.62355 4.75 1.90335)
(9.24711 4.75 3.8067)
(9.27993 4.75 3.72598)
(4.65602 4.75 1.82249)
(9.27993 4.75 3.72598)
(4.67172 4.75 1.78185)
(9.31204 4.75 3.64498)
(4.67172 4.75 1.78185)
(9.34345 4.75 3.5637)
(9.37415 4.75 3.48216)
(4.70207 4.75 1.70017)
(9.37415 4.75 3.48216)
(4.7167 4.75 1.65914)
(9.40413 4.75 3.40034)
(4.95258 4.75 0.686975)
(9.90516 4.75 1.37395)
(9.91676 4.75 1.28759)
(4.9638 4.75 0.600566)
(9.91676 4.75 1.28759)
(4.96884 4.75 0.557292)
(9.9276 4.75 1.20113)
(4.99559 4.75 0.209853)
(9.99119 4.75 0.419706)
(9.99446 4.75 0.332634)
(4.99849 4.75 0.122768)
(9.99446 4.75 0.332634)
(4.99937 4.75 0.07921)
(9.99699 4.75 0.245536)
(4.93738 4.75 -0.788822)
(9.87477 4.75 -1.57764)
(9.86064 4.75 -1.66363)
(4.92289 4.75 -0.874741)
(9.86064 4.75 -1.66363)
(4.91508 4.75 -0.917603)
(9.84578 4.75 -1.74948)
(4.91508 4.75 -0.917603)
(9.83016 4.75 -1.8352)
(9.8138 4.75 -1.92079)
(4.89834 4.75 -1.00311)
(9.8138 4.75 -1.92079)
(4.88942 4.75 -1.04576)
(9.79669 4.75 -2.00623)
(4.34979 4.75 -2.46562)
(8.69959 4.75 -4.93124)
(8.65629 4.75 -5.00686)
(4.30617 4.75 -2.54105)
(8.65629 4.75 -5.00686)
(4.28386 4.75 -2.57847)
(8.61233 4.75 -5.08209)
(4.28386 4.75 -2.57847)
(8.56773 4.75 -5.15694)
(8.52247 4.75 -5.2314)
(4.23828 4.75 -2.65273)
(8.52247 4.75 -5.2314)
(4.21501 4.75 -2.68956)
(8.47656 4.75 -5.30546)
(-0.217767 4.75 -4.99526)
(-0.435534 4.75 -9.99051)
(-0.522569 4.75 -9.98634)
(-0.304781 4.75 -4.9907)
(-0.522569 4.75 -9.98634)
(-0.348256 4.75 -4.98786)
(-0.609563 4.75 -9.9814)
(-0.348256 4.75 -4.98786)
(-0.696511 4.75 -9.97571)
(-0.783406 4.75 -9.96927)
(-0.435121 4.75 -4.98103)
(-0.783406 4.75 -9.96927)
(-0.478506 4.75 -4.97705)
(-0.870242 4.75 -9.96206)
(-1.12308 4.75 -4.87224)
(-2.24617 4.75 -9.74447)
(-2.33099 4.75 -9.72453)
(-1.20782 4.75 -4.85192)
(-2.33099 4.75 -9.72453)
(-1.33422 4.75 -4.8187)
(-2.66844 4.75 -9.6374)
(-2.75231 4.75 -9.61378)
(-1.41799 4.75 -4.79472)
(-2.75231 4.75 -9.61378)
(-1.62547 4.75 -4.72841)
(-3.25094 4.75 -9.45682)
(-3.33322 4.75 -9.42813)
(-1.70762 4.75 -4.69937)
(-3.33322 4.75 -9.42813)
(-1.7485 4.75 -4.68431)
(-3.41524 4.75 -9.39873)
(-1.87034 4.75 -4.63701)
(-3.74068 4.75 -9.27401)
(-3.82134 4.75 -9.24107)
(-1.95086 4.75 -4.60371)
(-3.82134 4.75 -9.24107)
(-1.9909 4.75 -4.58654)
(-3.90172 4.75 -9.20742)
(-2.22786 4.75 -4.47623)
(-4.45571 4.75 -8.95246)
(-4.53355 4.75 -8.9133)
(-2.30552 4.75 -4.43673)
(-4.53355 4.75 -8.9133)
(-2.60895 4.75 -4.26537)
(-5.21789 4.75 -8.53074)
(-5.29202 4.75 -8.48495)
(-2.68288 4.75 -4.21926)
(-5.29202 4.75 -8.48495)
(-2.71954 4.75 -4.19572)
(-5.36576 4.75 -8.43852)
(-3.65253 4.75 -3.41453)
(-7.30507 4.75 -6.82905)
(-7.36429 4.75 -6.76514)
(-3.71148 4.75 -3.35036)
(-7.36429 4.75 -6.76514)
(-3.74053 4.75 -3.31789)
(-7.42296 4.75 -6.70072)
(-4.3902 4.75 -2.39293)
(-8.78041 4.75 -4.78585)
(-8.82178 4.75 -4.70916)
(-4.43124 4.75 -2.31606)
(-8.82178 4.75 -4.70916)
(-4.45125 4.75 -2.27736)
(-8.86248 4.75 -4.63212)
(-4.49026 4.75 -2.19945)
(-8.98052 4.75 -4.39889)
(-9.01851 4.75 -4.32048)
(-4.5279 4.75 -2.12087)
(-9.01851 4.75 -4.32048)
(-4.54621 4.75 -2.08133)
(-9.05581 4.75 -4.24173)
(-4.88859 4.75 -1.04963)
(-9.77717 4.75 -2.09926)
(-9.79509 4.75 -2.01399)
(-4.90614 4.75 -0.964281)
(-9.79509 4.75 -2.01399)
(-4.91435 4.75 -0.921495)
(-9.81227 4.75 -1.92856)
(-4.92966 4.75 -0.835718)
(-9.85933 4.75 -1.67144)
(-9.87352 4.75 -1.58546)
(-4.94348 4.75 -0.749687)
(-9.87352 4.75 -1.58546)
(-4.94982 4.75 -0.706584)
(-9.88696 4.75 -1.49937)
(-4.99797 4.75 -0.142564)
(-9.99593 4.75 -0.285129)
(-9.99804 4.75 -0.19802)
(-4.99969 4.75 -0.055448)
(-9.99804 4.75 -0.19802)
(-4.99999 4.75 -0.011882)
(-9.99939 4.75 -0.110896)
(-4.59126 4.75 1.97999)
(-9.18251 4.75 3.95999)
(-9.14766 4.75 4.03985)
(-4.55605 4.75 2.0597)
(-9.14766 4.75 4.03985)
(-4.53793 4.75 2.09932)
(-9.11211 4.75 4.1194)
(-4.40153 4.75 2.37203)
(-8.80306 4.75 4.74407)
(-8.76139 4.75 4.82059)
(-4.35953 4.75 2.44837)
(-8.76139 4.75 4.82059)
(-4.33803 4.75 2.48627)
(-8.71905 4.75 4.89675)
(-4.33803 4.75 2.48627)
(-8.67605 4.75 4.97253)
(-8.6324 4.75 5.04794)
(-4.29404 4.75 2.56148)
(-8.6324 4.75 5.04794)
(-4.27156 4.75 2.5988)
(-8.58808 4.75 5.12297)
(-4.17841 4.75 2.74607)
(-8.35681 4.75 5.49215)
(-8.30864 4.75 5.56475)
(-4.12992 4.75 2.81847)
(-8.30864 4.75 5.56475)
(-4.1052 4.75 2.85435)
(-8.25984 4.75 5.63694)
(-4.1052 4.75 2.85435)
(-8.21041 4.75 5.7087)
(-8.16035 4.75 5.78002)
(-4.05484 4.75 2.92545)
(-8.16035 4.75 5.78002)
(-4.0292 4.75 2.96067)
(-8.10968 4.75 5.8509)
(-3.78487 4.75 3.26722)
(-7.56974 4.75 6.53445)
(-7.51252 4.75 6.60015)
(-3.72736 4.75 3.33268)
(-7.51252 4.75 6.60015)
(-3.69818 4.75 3.36503)
(-7.45472 4.75 6.66536)
(-3.51728 4.75 3.55369)
(-7.03457 4.75 7.10738)
(-6.97237 4.75 7.16841)
(-3.45482 4.75 3.61444)
(-6.97237 4.75 7.16841)
(-3.4232 4.75 3.64441)
(-6.90965 4.75 7.22889)
(-3.4232 4.75 3.64441)
(-6.8464 4.75 7.28882)
(-6.78263 4.75 7.3482)
(-3.35917 4.75 3.70351)
(-6.78263 4.75 7.3482)
(-3.32677 4.75 3.73264)
(-6.71834 4.75 7.40702)
(-3.32677 4.75 3.73264)
(-6.65355 4.75 7.46528)
(-6.58824 4.75 7.52297)
(-3.26122 4.75 3.79004)
(-6.58824 4.75 7.52297)
(-3.22808 4.75 3.81832)
(-6.52245 4.75 7.58009)
(-3.22808 4.75 3.81832)
(-6.45615 4.75 7.63663)
(-6.38936 4.75 7.6926)
(-3.16105 4.75 3.87399)
(-6.38936 4.75 7.6926)
(-3.12717 4.75 3.90138)
(-6.32209 4.75 7.74798)
(1.39518 4.75 4.8014)
(2.79037 4.75 9.6028)
(2.87393 4.75 9.57812)
(1.47864 4.75 4.77636)
(2.87393 4.75 9.57812)
(1.5202 4.75 4.7633)
(2.95728 4.75 9.55272)
(1.5202 4.75 4.7633)
(3.04041 4.75 9.52659)
(3.1233 4.75 9.49974)
(1.60298 4.75 4.73608)
(3.1233 4.75 9.49974)
(1.64418 4.75 4.72193)
(3.20595 4.75 9.47216)
(2.88031 4.75 4.08703)
(5.76061 4.75 8.17407)
(5.83162 4.75 8.12356)
(3.86647 4.75 3.17024)
(7.73293 4.75 6.34049)
(7.78788 4.75 6.27287)
(3.92112 4.75 3.10239)
(7.78788 4.75 6.27287)
(3.94801 4.75 3.0681)
(7.84225 4.75 6.20477)
(3.94801 4.75 3.0681)
(7.89601 4.75 6.1362)
(7.94918 4.75 6.06717)
(4.00087 4.75 2.99884)
(7.94918 4.75 6.06717)
(4.02685 4.75 2.96386)
(8.00174 4.75 5.99768)
(4.96884 4.75 0.557292)