/*--------------------------------*- C++ -*----------------------------------*\
| =========                 |                                                 |
| \\      /  F ield         | OpenFOAM: The Open Source CFD Toolbox           |
|  \\    /   O peration     | Version:  v2012                                 |
|   \\  /    A nd           | Website:  www.openfoam.com                      |
|    \\/     M anipulation  |                                                 |
\*---------------------------------------------------------------------------*/
FoamFile
{
    version     2.0;
    format      ascii;
    class       extendedFeatureEdgeMesh;
    location    "constant/extendedFeatureEdgeMesh";
    object      tornadoSimulatorSLMaskL.extendedFeatureEdgeMesh;
}
// * * * * * * * * * * * * * * * * * * * * * * * * * * * * * * * * * * * * * //

// points

17328
(
(3.80337 4.9 9.24853)
(3.76306 4.9 9.26491)
(3.72274 4.9 9.28128)
(3.68229 4.9 9.2973)
(5.12508 4.9 8.58688)
(5.08762 4.9 8.60902)
(5.05016 4.9 8.63115)
(5.01251 4.9 8.65297)
(9.98784 4.9 0.492994)
(9.98551 4.9 0.536444)
(9.98317 4.9 0.579894)
(9.98046 4.9 0.623322)
(-3.34285 4.9 9.42477)
(-3.3838 4.9 9.41005)
(-3.42474 4.9 9.39533)
(-3.46556 4.9 9.38025)
(6.53465 4.9 7.56963)
(6.50159 4.9 7.59792)
(6.46852 4.9 7.6262)
(6.43522 4.9 7.65421)
(9.44871 4.9 -3.27436)
(9.46278 4.9 -3.23319)
(9.47685 4.9 -3.19201)
(9.49056 4.9 -3.15072)
(3.80337 -0.1 9.24853)
(3.76306 -0.1 9.26491)
(3.72274 -0.1 9.28128)
(3.68229 -0.1 9.2973)
(3.64183 -0.1 9.31333)
(3.60124 -0.1 9.329)
(3.56065 -0.1 9.34467)
(3.51992 -0.1 9.35998)
(3.47919 -0.1 9.3753)
(3.43833 -0.1 9.39026)
(3.39748 -0.1 9.40522)
(3.35649 -0.1 9.41983)
(3.3155 -0.1 9.43443)
(3.27439 -0.1 9.44868)
(3.23327 -0.1 9.46293)
(3.19204 -0.1 9.47682)
(3.1508 -0.1 9.49071)
(3.10945 -0.1 9.50423)
(3.06809 -0.1 9.51777)
(3.02662 -0.1 9.53093)
(2.98515 -0.1 9.5441)
(2.94356 -0.1 9.55691)
(2.90198 -0.1 9.56972)
(2.86029 -0.1 9.58217)
(2.81859 -0.1 9.59461)
(2.77679 -0.1 9.60669)
(2.73499 -0.1 9.61878)
(2.69308 -0.1 9.63049)
(2.65118 -0.1 9.64221)
(2.60917 -0.1 9.65357)
(2.56717 -0.1 9.66492)
(2.52507 -0.1 9.67591)
(2.48297 -0.1 9.68689)
(2.44077 -0.1 9.69751)
(2.39857 -0.1 9.70814)
(2.35629 -0.1 9.71839)
(2.314 -0.1 9.72864)
(2.27162 -0.1 9.73853)
(2.22925 -0.1 9.74841)
(2.18679 -0.1 9.75793)
(2.14433 -0.1 9.76744)
(2.10179 -0.1 9.77659)
(2.05925 -0.1 9.78573)
(2.01663 -0.1 9.79451)
(1.97401 -0.1 9.80328)
(1.93132 -0.1 9.81169)
(1.88863 -0.1 9.82009)
(1.84586 -0.1 9.82812)
(1.8031 -0.1 9.83615)
(1.76027 -0.1 9.84381)
(1.71743 -0.1 9.85147)
(1.67454 -0.1 9.85876)
(1.63164 -0.1 9.86604)
(1.58868 -0.1 9.87296)
(1.54572 -0.1 9.87987)
(1.5027 -0.1 9.88641)
(1.45968 -0.1 9.89295)
(1.41661 -0.1 9.89911)
(1.37354 -0.1 9.90527)
(1.33041 -0.1 9.91106)
(1.28729 -0.1 9.91685)
(1.24411 -0.1 9.92227)
(1.20094 -0.1 9.92768)
(1.15772 -0.1 9.93272)
(1.1145 -0.1 9.93775)
(1.07123 -0.1 9.94242)
(1.02797 -0.1 9.94708)
(0.984673 -0.1 9.95136)
(0.941372 -0.1 9.95565)
(0.898036 -0.1 9.95955)
(0.854699 -0.1 9.96346)
(0.81133 -0.1 9.96699)
(0.767962 -0.1 9.97052)
(0.724564 -0.1 9.97368)
(0.681166 -0.1 9.97683)
(0.637742 -0.1 9.9796)
(0.594318 -0.1 9.98238)
(0.550872 -0.1 9.98478)
(0.507426 -0.1 9.98717)
(0.463961 -0.1 9.98919)
(0.420496 -0.1 9.99121)
(0.377014 -0.1 9.99285)
(0.333533 -0.1 9.99449)
(0.290039 -0.1 9.99575)
(0.246545 -0.1 9.99701)
(0.203042 -0.1 9.9979)
(0.159539 -0.1 9.99878)
(0.116029 -0.1 9.99929)
(0.07252 -0.1 9.99979)
(0.029008 -0.1 9.99992)
(-0.014504 -0.1 10)
(-0.058016 -0.1 9.99979)
(-0.101527 -0.1 9.99954)
(-0.145035 -0.1 9.99891)
(-0.188542 -0.1 9.99828)
(-0.232043 -0.1 9.99727)
(-0.275543 -0.1 9.99626)
(-0.319033 -0.1 9.99487)
(-0.362524 -0.1 9.99348)
(-0.406 -0.1 9.99171)
(-0.449476 -0.1 9.98995)
(-0.492936 -0.1 9.9878)
(-0.536395 -0.1 9.98566)
(-0.579834 -0.1 9.98314)
(-0.623273 -0.1 9.98061)
(-0.666688 -0.1 9.97771)
(-0.710104 -0.1 9.97481)
(-0.753492 -0.1 9.97153)
(-0.796881 -0.1 9.96825)
(-0.840239 -0.1 9.9646)
(-0.883597 -0.1 9.96094)
(-0.926922 -0.1 9.95691)
(-0.970247 -0.1 9.95288)
(-1.01354 -0.1 9.94846)
(-1.05682 -0.1 9.94405)
(-1.10007 -0.1 9.93927)
(-1.14332 -0.1 9.93448)
(-1.18653 -0.1 9.92932)
(-1.22973 -0.1 9.92415)
(-1.27289 -0.1 9.91862)
(-1.31605 -0.1 9.91308)
(-1.35915 -0.1 9.90716)
(-1.40226 -0.1 9.90125)
(-1.44532 -0.1 9.89496)
(-1.48837 -0.1 9.88867)
(-1.53137 -0.1 9.88201)
(-1.57437 -0.1 9.87534)
(-1.61731 -0.1 9.86831)
(-1.66025 -0.1 9.86127)
(-1.70313 -0.1 9.85386)
(-1.746 -0.1 9.84645)
(-1.78881 -0.1 9.83867)
(-1.83162 -0.1 9.83088)
(-1.87437 -0.1 9.82273)
(-1.91711 -0.1 9.81457)
(-1.95978 -0.1 9.80604)
(-2.00244 -0.1 9.79751)
(-2.04504 -0.1 9.78862)
(-2.08763 -0.1 9.77972)
(-2.13014 -0.1 9.77045)
(-2.17266 -0.1 9.76118)
(-2.21509 -0.1 9.75154)
(-2.25752 -0.1 9.7419)
(-2.29986 -0.1 9.73189)
(-2.34221 -0.1 9.72189)
(-2.38447 -0.1 9.71151)
(-2.42672 -0.1 9.70114)
(-2.46889 -0.1 9.69039)
(-2.51105 -0.1 9.67965)
(-2.55313 -0.1 9.66854)
(-2.59519 -0.1 9.65743)
(-2.63717 -0.1 9.64596)
(-2.67914 -0.1 9.63448)
(-2.72101 -0.1 9.62264)
(-2.76288 -0.1 9.6108)
(-2.80464 -0.1 9.5986)
(-2.84641 -0.1 9.5864)
(-2.88807 -0.1 9.57383)
(-2.92973 -0.1 9.56126)
(-2.97127 -0.1 9.54833)
(-3.01282 -0.1 9.53541)
(-3.05425 -0.1 9.52212)
(-3.09569 -0.1 9.50882)
(-3.137 -0.1 9.49517)
(-3.17832 -0.1 9.48152)
(-3.21951 -0.1 9.46752)
(-3.26071 -0.1 9.45351)
(-3.30178 -0.1 9.43914)
(-3.34285 -0.1 9.42477)
(-3.3838 -0.1 9.41005)
(-3.42474 -0.1 9.39533)
(-3.46556 -0.1 9.38025)
(-3.50638 -0.1 9.36517)
(-3.54706 -0.1 9.34973)
(-3.58774 -0.1 9.3343)
(-3.62829 -0.1 9.31851)
(-3.66884 -0.1 9.30272)
(-3.70924 -0.1 9.28658)
(-3.74965 -0.1 9.27044)
(-3.78992 -0.1 9.25395)
(-3.83018 -0.1 9.23746)
(-3.87031 -0.1 9.22062)
(-3.91043 -0.1 9.20378)
(-3.9504 -0.1 9.18659)
(-3.99037 -0.1 9.1694)
(-4.03019 -0.1 9.15187)
(-4.07002 -0.1 9.13433)
(-4.10968 -0.1 9.11645)
(-4.14935 -0.1 9.09856)
(-4.18886 -0.1 9.08034)
(-4.22837 -0.1 9.06211)
(-4.26772 -0.1 9.04354)
(-4.30708 -0.1 9.02497)
(-4.34626 -0.1 9.00606)
(-4.38545 -0.1 8.98715)
(-4.42447 -0.1 8.9679)
(-4.46349 -0.1 8.94864)
(-4.50235 -0.1 8.92905)
(-4.5412 -0.1 8.90946)
(-4.57988 -0.1 8.88953)
(-4.61856 -0.1 8.8696)
(-4.65706 -0.1 8.84934)
(-4.69557 -0.1 8.82908)
(-4.7339 -0.1 8.80848)
(-4.77222 -0.1 8.78788)
(-4.81037 -0.1 8.76695)
(-4.84852 -0.1 8.74602)
(-4.88648 -0.1 8.72476)
(-4.92445 -0.1 8.70349)
(-4.96222 -0.1 8.6819)
(9.97775 -0.1 0.666749)
(9.97466 -0.1 0.710151)
(9.97157 -0.1 0.753553)
(9.9681 -0.1 0.796927)
(9.96464 -0.1 0.840302)
(9.96079 -0.1 0.883644)
(9.95695 -0.1 0.926986)
(9.95272 -0.1 0.970293)
(9.9485 -0.1 1.0136)
(9.94391 -0.1 1.05687)
(9.93931 -0.1 1.10014)
(9.93433 -0.1 1.14336)
(9.92936 -0.1 1.18659)
(9.92401 -0.1 1.22977)
(9.91865 -0.1 1.27295)
(9.91293 -0.1 1.31609)
(9.9072 -0.1 1.35922)
(9.9011 -0.1 1.4023)
(9.895 -0.1 1.44539)
(9.88852 -0.1 1.48841)
(9.88205 -0.1 1.53144)
(9.8752 -0.1 1.57441)
(9.86835 -0.1 1.61738)
(9.86112 -0.1 1.66029)
(9.8539 -0.1 1.7032)
(9.8463 -0.1 1.74604)
(9.8387 -0.1 1.78889)
(9.83073 -0.1 1.83166)
(9.82276 -0.1 1.87444)
(9.81442 -0.1 1.91714)
(9.80608 -0.1 1.95985)
(9.79737 -0.1 2.00248)
(9.78865 -0.1 2.04511)
(9.77957 -0.1 2.08766)
(9.77049 -0.1 2.13022)
(9.76103 -0.1 2.17269)
(9.75158 -0.1 2.21516)
(9.74176 -0.1 2.25755)
(9.73193 -0.1 2.29994)
(9.72174 -0.1 2.34224)
(9.71155 -0.1 2.38454)
(9.70099 -0.1 2.42676)
(9.69043 -0.1 2.46897)
(9.67951 -0.1 2.51109)
(9.66858 -0.1 2.5532)
(9.65729 -0.1 2.59523)
(9.64599 -0.1 2.63725)
(9.63434 -0.1 2.67917)
(9.62268 -0.1 2.72109)
(9.61066 -0.1 2.76291)
(9.59864 -0.1 2.80473)
(9.58625 -0.1 2.84644)
(9.57387 -0.1 2.88815)
(9.56112 -0.1 2.92975)
(9.54837 -0.1 2.97136)
(9.53526 -0.1 3.01285)
(9.52215 -0.1 3.05434)
(9.50868 -0.1 3.09571)
(9.49521 -0.1 3.13709)
(9.48138 -0.1 3.17834)
(9.46755 -0.1 3.2196)
(9.45336 -0.1 3.26073)
(9.43918 -0.1 3.30187)
(9.42463 -0.1 3.34288)
(9.41009 -0.1 3.38388)
(9.39518 -0.1 3.42477)
(9.38028 -0.1 3.46565)
(9.36502 -0.1 3.5064)
(9.34977 -0.1 3.54715)
(9.33416 -0.1 3.58776)
(9.31854 -0.1 3.62838)
(9.30258 -0.1 3.66886)
(9.28662 -0.1 3.70933)
(9.2703 -0.1 3.74967)
(9.25399 -0.1 3.79001)
(9.23732 -0.1 3.8302)
(9.22065 -0.1 3.8704)
(9.20364 -0.1 3.91044)
(9.18662 -0.1 3.95049)
(9.16926 -0.1 3.99039)
(9.1519 -0.1 4.03029)
(9.13419 -0.1 4.07003)
(9.11648 -0.1 4.10978)
(9.09842 -0.1 4.14937)
(9.08037 -0.1 4.18896)
(9.06197 -0.1 4.22839)
(9.04357 -0.1 4.26782)
(9.02483 -0.1 4.30709)
(9.00609 -0.1 4.34636)
(8.98701 -0.1 4.38546)
(8.96792 -0.1 4.42457)
(8.9485 -0.1 4.4635)
(8.92908 -0.1 4.50244)
(8.90932 -0.1 4.54121)
(8.88956 -0.1 4.57998)
(8.86947 -0.1 4.61857)
(8.84937 -0.1 4.65716)
(8.82894 -0.1 4.69558)
(8.80851 -0.1 4.734)
(8.78774 -0.1 4.77223)
(8.76698 -0.1 4.81047)
(8.74588 -0.1 4.84853)
(8.72478 -0.1 4.88658)
(8.70336 -0.1 4.92445)
(8.68193 -0.1 4.96232)
(8.66017 -0.1 5.00001)
(8.63842 -0.1 5.03769)
(8.61633 -0.1 5.07518)
(8.59425 -0.1 5.11267)
(8.57184 -0.1 5.14997)
(8.54943 -0.1 5.18727)
(8.5267 -0.1 5.22437)
(8.50397 -0.1 5.26147)
(8.48091 -0.1 5.29838)
(8.45786 -0.1 5.33528)
(8.43448 -0.1 5.37198)
(8.41111 -0.1 5.40868)
(8.38742 -0.1 5.44518)
(8.36372 -0.1 5.48167)
(8.33971 -0.1 5.51796)
(8.3157 -0.1 5.55425)
(8.29138 -0.1 5.59033)
(8.26705 -0.1 5.62641)
(8.24242 -0.1 5.66227)
(8.21778 -0.1 5.69813)
(8.19283 -0.1 5.73378)
(8.16788 -0.1 5.76943)
(8.14262 -0.1 5.80486)
(8.11736 -0.1 5.8403)
(8.0918 -0.1 5.8755)
(8.06623 -0.1 5.91071)
(8.04036 -0.1 5.9457)
(8.01449 -0.1 5.98069)
(7.98832 -0.1 6.01544)
(7.96214 -0.1 6.0502)
(7.93567 -0.1 6.08473)
(7.90919 -0.1 6.11927)
(7.88241 -0.1 6.15356)
(7.85564 -0.1 6.18786)
(7.82857 -0.1 6.22192)
(7.80149 -0.1 6.25599)
(7.77412 -0.1 6.28982)
(7.74676 -0.1 6.32364)
(7.71909 -0.1 6.35723)
(7.69143 -0.1 6.39082)
(7.66348 -0.1 6.42417)
(7.63553 -0.1 6.45751)
(7.60728 -0.1 6.49061)
(7.57904 -0.1 6.52371)
(7.55051 -0.1 6.55657)
(7.52198 -0.1 6.58942)
(7.49317 -0.1 6.62203)
(7.46436 -0.1 6.65463)
(7.43526 -0.1 6.68698)
(7.40616 -0.1 6.71934)
(7.37678 -0.1 6.75144)
(7.34741 -0.1 6.78353)
(7.31775 -0.1 6.81538)
(7.2881 -0.1 6.84722)
(7.25817 -0.1 6.8788)
(7.22823 -0.1 6.91038)
(7.19803 -0.1 6.9417)
(7.16783 -0.1 6.97302)
(7.13735 -0.1 7.00408)
(7.10687 -0.1 7.03514)
(7.07613 -0.1 7.06593)
(7.04538 -0.1 7.09672)
(7.01437 -0.1 7.12724)
(6.98336 -0.1 7.15776)
(6.95208 -0.1 7.18801)
(6.9208 -0.1 7.21826)
(6.88926 -0.1 7.24824)
(6.85773 -0.1 7.27821)
(6.82593 -0.1 7.30792)
(6.79413 -0.1 7.33762)
(6.76207 -0.1 7.36704)
(6.73002 -0.1 7.39646)
(6.69771 -0.1 7.42561)
(6.6654 -0.1 7.45475)
(6.63283 -0.1 7.48361)
(6.60027 -0.1 7.51247)
(6.56746 -0.1 7.54105)
(6.53465 -0.1 7.56963)
(6.50159 -0.1 7.59792)
(6.46852 -0.1 7.6262)
(6.43522 -0.1 7.65421)
(6.40191 -0.1 7.68221)
(6.36837 -0.1 7.70992)
(6.33482 -0.1 7.73763)
(6.30103 -0.1 7.76505)
(6.26724 -0.1 7.79246)
(6.23322 -0.1 7.81959)
(6.19919 -0.1 7.84671)
(6.16493 -0.1 7.87353)
(6.13067 -0.1 7.90036)
(6.09618 -0.1 7.92689)
(6.06169 -0.1 7.95341)
(6.02697 -0.1 7.97964)
(5.99225 -0.1 8.00586)
(5.9573 -0.1 8.03178)
(5.92235 -0.1 8.05771)
(5.88718 -0.1 8.08332)
(5.85201 -0.1 8.10894)
(5.81661 -0.1 8.13425)
(5.78122 -0.1 8.15956)
(5.74561 -0.1 8.18456)
(5.70999 -0.1 8.20956)
(5.67416 -0.1 8.23425)
(5.63833 -0.1 8.25894)
(5.60229 -0.1 8.28332)
(5.56625 -0.1 8.30769)
(5.53 -0.1 8.33175)
(5.49374 -0.1 8.35582)
(5.45728 -0.1 8.37956)
(5.42082 -0.1 8.40331)
(5.38415 -0.1 8.42674)
(5.34749 -0.1 8.45017)
(5.31062 -0.1 8.47327)
(5.27375 -0.1 8.49638)
(5.23668 -0.1 8.51917)
(5.19961 -0.1 8.54195)
(5.16235 -0.1 8.56442)
(5.12508 -0.1 8.58688)
(5.08762 -0.1 8.60902)
(5.05016 -0.1 8.63115)
(5.01251 -0.1 8.65297)
(4.97486 -0.1 8.67478)
(4.93702 -0.1 8.69626)
(4.89918 -0.1 8.71774)
(4.86115 -0.1 8.73889)
(4.82313 -0.1 8.76005)
(4.78492 -0.1 8.78087)
(4.74671 -0.1 8.80169)
(4.70833 -0.1 8.82217)
(4.66994 -0.1 8.84266)
(4.63137 -0.1 8.86281)
(4.59281 -0.1 8.88297)
(4.55407 -0.1 8.90278)
(4.51533 -0.1 8.9226)
(4.47642 -0.1 8.94208)
(4.43752 -0.1 8.96155)
(4.39844 -0.1 8.98069)
(4.35936 -0.1 8.99983)
(4.32012 -0.1 9.01863)
(4.28088 -0.1 9.03743)
(4.24147 -0.1 9.05588)
(4.20207 -0.1 9.07434)
(4.16251 -0.1 9.09245)
(4.12294 -0.1 9.11056)
(4.08322 -0.1 9.12833)
(4.0435 -0.1 9.1461)
(4.00363 -0.1 9.16352)
(3.96376 -0.1 9.18094)
(3.92373 -0.1 9.19801)
(3.88371 -0.1 9.21509)
(3.84354 -0.1 9.23181)
(9.97157 4.9 0.753553)
(9.97466 4.9 0.710151)
(9.97775 4.9 0.666749)
(9.98046 4.9 0.623322)
(9.98317 4.9 0.579894)
(9.98551 4.9 0.536444)
(9.98784 4.9 0.492994)
(9.9898 4.9 0.449526)
(9.99175 4.9 0.406058)
(9.99333 4.9 0.362575)
(9.99491 4.9 0.319091)
(9.99611 4.9 0.275595)
(9.99731 4.9 0.2321)
(9.99813 4.9 0.188595)
(9.99895 4.9 0.14509)
(9.99939 4.9 0.10158)
(9.99983 4.9 0.05807)
(9.9999 4.9 0.014558)
(9.99996 4.9 -0.028954)
(9.99964 4.9 -0.072465)
(9.99933 4.9 -0.115976)
(9.99863 4.9 -0.159483)
(9.99794 4.9 -0.20299)
(9.99687 4.9 -0.246489)
(9.99579 4.9 -0.289988)
(9.99434 4.9 -0.333476)
(9.99289 4.9 -0.376964)
(9.99106 4.9 -0.420437)
(9.98923 4.9 -0.463911)
(9.98702 4.9 -0.507367)
(9.98482 4.9 -0.550823)
(9.98223 4.9 -0.594258)
(9.97964 4.9 -0.637693)
(9.97668 4.9 -0.681105)
(9.97372 4.9 -0.724516)
(9.97037 4.9 -0.7679)
(9.96703 4.9 -0.811284)
(9.96331 4.9 -0.854637)
(9.95959 4.9 -0.89799)
(9.9555 4.9 -0.941309)
(9.9514 4.9 -0.984628)
(9.94693 4.9 -1.02791)
(9.94246 4.9 -1.07119)
(9.93761 4.9 -1.11443)
(9.93276 4.9 -1.15767)
(9.92753 4.9 -1.20087)
(9.92231 4.9 -1.24407)
(9.9167 4.9 -1.28722)
(9.9111 4.9 -1.33037)
(9.90513 4.9 -1.37347)
(9.89915 4.9 -1.41657)
(9.8928 4.9 -1.45961)
(9.88645 4.9 -1.50266)
(9.87972 4.9 -1.54565)
(9.873 4.9 -1.58864)
(9.8659 4.9 -1.63157)
(9.8588 4.9 -1.6745)
(9.85132 4.9 -1.71736)
(9.84385 4.9 -1.76023)
(9.83601 4.9 -1.80303)
(9.82816 4.9 -1.84583)
(9.81994 4.9 -1.88856)
(9.81172 4.9 -1.93128)
(9.80313 4.9 -1.97394)
(9.79454 4.9 -2.0166)
(9.78558 4.9 -2.05918)
(9.77662 4.9 -2.10176)
(9.76729 4.9 -2.14426)
(9.75796 4.9 -2.18676)
(9.74826 4.9 -2.22917)
(9.73856 4.9 -2.27159)
(9.7285 4.9 -2.31392)
(9.71843 4.9 -2.35625)
(9.70799 4.9 -2.3985)
(9.69755 4.9 -2.44074)
(9.68675 4.9 -2.48289)
(9.67595 4.9 -2.52504)
(9.66478 4.9 -2.56709)
(9.65361 4.9 -2.60914)
(9.64207 4.9 -2.6511)
(9.63053 4.9 -2.69306)
(9.61863 4.9 -2.73491)
(9.60673 4.9 -2.77676)
(9.59447 4.9 -2.81851)
(9.5822 4.9 -2.86026)
(9.56958 4.9 -2.9019)
(9.55695 4.9 -2.94354)
(9.54396 4.9 -2.98507)
(9.53097 4.9 -3.02659)
(9.51762 4.9 -3.06801)
(9.50427 4.9 -3.10942)
(9.49056 4.9 -3.15072)
(9.47685 4.9 -3.19201)
(9.46278 4.9 -3.23319)
(9.44871 4.9 -3.27436)
(9.43429 4.9 -3.31541)
(9.41986 4.9 -3.35647)
(9.40508 4.9 -3.39739)
(9.39029 4.9 -3.43831)
(9.37515 4.9 -3.47911)
(9.36002 4.9 -3.5199)
(9.34452 4.9 -3.56056)
(9.32903 4.9 -3.60122)
(9.31319 4.9 -3.64175)
(9.29734 4.9 -3.68227)
(9.28114 4.9 -3.72266)
(9.26494 4.9 -3.76304)
(9.24839 4.9 -3.80328)
(9.23184 4.9 -3.84352)
(9.21494 4.9 -3.88362)
(9.19804 4.9 -3.92372)
(9.1808 4.9 -3.96367)
(9.16355 4.9 -4.00361)
(9.14596 4.9 -4.04341)
(9.12836 4.9 -4.08321)
(9.11042 4.9 -4.12285)
(9.09248 4.9 -4.16249)
(9.0742 4.9 -4.20197)
(9.05591 4.9 -4.24146)
(9.03729 4.9 -4.28078)
(9.01866 4.9 -4.32011)
(8.99969 4.9 -4.35926)
(8.98072 4.9 -4.39843)
(8.96141 4.9 -4.43742)
(8.9421 4.9 -4.47641)
(8.92246 4.9 -4.51524)
(8.90281 4.9 -4.55406)
(8.88283 4.9 -4.59271)
(8.86284 4.9 -4.63136)
(8.84252 4.9 -4.66984)
(8.8222 4.9 -4.70832)
(8.80155 4.9 -4.74661)
(8.78089 4.9 -4.78491)
(8.75991 4.9 -4.82303)
(8.73892 4.9 -4.86114)
(8.7176 4.9 -4.89908)
(8.69629 4.9 -4.93701)
(8.67464 4.9 -4.97476)
(8.65299 4.9 -5.0125)
(8.63102 4.9 -5.05006)
(8.60904 4.9 -5.08761)
(8.58674 4.9 -5.12498)
(8.56444 4.9 -5.16234)
(8.54182 4.9 -5.19951)
(8.51919 4.9 -5.23667)
(8.49625 4.9 -5.27364)
(8.4733 4.9 -5.31061)
(8.45003 4.9 -5.34738)
(8.42676 4.9 -5.38415)
(8.40318 4.9 -5.42071)
(8.37959 4.9 -5.45728)
(8.35568 4.9 -5.49364)
(8.33178 4.9 -5.52999)
(8.30756 4.9 -5.56614)
(8.28334 4.9 -5.60229)
(8.25881 4.9 -5.63823)
(8.23427 4.9 -5.67416)
(8.20943 4.9 -5.70989)
(8.18458 4.9 -5.74561)
(8.15943 4.9 -5.78111)
(8.13427 4.9 -5.81661)
(8.10881 4.9 -5.8519)
(8.08334 4.9 -5.88718)
(8.05757 4.9 -5.92224)
(8.03181 4.9 -5.9573)
(8.00573 4.9 -5.99214)
(7.97966 4.9 -6.02697)
(7.95328 4.9 -6.06158)
(7.92691 4.9 -6.09619)
(7.90023 4.9 -6.13056)
(7.87355 4.9 -6.16494)
(7.84658 4.9 -6.19908)
(7.81961 4.9 -6.23322)
(7.79234 4.9 -6.26713)
(7.76507 4.9 -6.30104)
(7.7375 4.9 -6.3347)
(7.70994 4.9 -6.36837)
(7.68208 4.9 -6.4018)
(7.65423 4.9 -6.43523)
(7.62608 4.9 -6.46841)
(7.59793 4.9 -6.50159)
(7.5695 4.9 -6.53453)
(7.54107 4.9 -6.56747)
(7.51235 4.9 -6.60015)
(7.48363 4.9 -6.63284)
(7.45463 4.9 -6.66528)
(7.42562 4.9 -6.69772)
(7.39634 4.9 -6.7299)
(7.36705 4.9 -6.76208)
(7.33749 4.9 -6.79401)
(7.30793 4.9 -6.82594)
(7.27809 4.9 -6.85761)
(7.24825 4.9 -6.88928)
(7.21814 4.9 -6.92068)
(7.18802 4.9 -6.95209)
(7.15764 4.9 -6.98324)
(7.12725 4.9 -7.01438)
(7.09659 4.9 -7.04526)
(7.06594 4.9 -7.07614)
(7.03501 4.9 -7.10675)
(7.00409 4.9 -7.13736)
(6.9729 4.9 -7.1677)
(6.94171 4.9 -7.19804)
(6.91026 4.9 -7.22811)
(6.87881 4.9 -7.25818)
(6.8471 4.9 -7.28797)
(6.81539 4.9 -7.31777)
(6.78342 4.9 -7.34728)
(6.75145 4.9 -7.3768)
(6.71922 4.9 -7.40604)
(6.68699 4.9 -7.43527)
(6.65451 4.9 -7.46423)
(6.62204 4.9 -7.49319)
(6.58931 4.9 -7.52186)
(6.55658 4.9 -7.55053)
(6.5236 4.9 -7.57892)
(6.49062 4.9 -7.6073)
(6.4574 4.9 -7.6354)
(6.42417 4.9 -7.6635)
(6.3907 4.9 -7.6913)
(6.35724 4.9 -7.71911)
(6.32353 4.9 -7.74663)
(6.28982 4.9 -7.77414)
(6.25588 4.9 -7.80136)
(6.22193 4.9 -7.82859)
(6.18775 4.9 -7.85551)
(6.15357 4.9 -7.88243)
(6.11915 4.9 -7.90906)
(6.08474 4.9 -7.93569)
(6.05009 4.9 -7.96201)
(6.01545 4.9 -7.98834)
(5.98057 4.9 -8.01436)
(5.9457 4.9 -8.04038)
(5.9106 4.9 -8.0661)
(5.87551 4.9 -8.09182)
(5.84018 4.9 -8.11723)
(5.80487 4.9 -8.14264)
(5.76932 4.9 -8.16775)
(5.73378 4.9 -8.19285)
(5.69803 4.9 -8.21765)
(5.66227 4.9 -8.24244)
(5.6263 4.9 -8.26692)
(5.59033 4.9 -8.2914)
(5.55414 4.9 -8.31557)
(5.51796 4.9 -8.33974)
(5.48157 4.9 -8.36359)
(5.44517 4.9 -8.38744)
(5.40857 4.9 -8.41098)
(5.37198 4.9 -8.43451)
(5.33517 4.9 -8.45772)
(5.29837 4.9 -8.48094)
(5.26137 4.9 -8.50383)
(5.22437 4.9 -8.52673)
(5.18717 4.9 -8.5493)
(5.14997 4.9 -8.57187)
(5.11257 4.9 -8.59411)
(-4.92445 -0.1 8.70349)
(-4.88648 -0.1 8.72476)
(4.97486 -0.1 8.67478)
(5.01251 -0.1 8.65297)
(1.1145 -0.1 9.93775)
(1.15772 -0.1 9.93272)
(-1.31605 -0.1 9.91308)
(-1.27289 -0.1 9.91862)
(-1.22973 -0.1 9.92415)
(-1.18653 -0.1 9.92932)
(9.31854 -0.1 3.62838)
(9.33416 -0.1 3.58776)
(9.34977 -0.1 3.54715)
(9.36502 -0.1 3.5064)
(-2.42672 -0.1 9.70114)
(-2.38447 -0.1 9.71151)
(-5 4.9 8.66031)
(0 3.65 5.4e-05)
(-5 2.4 8.66031)
(2.5 2.4 -4.33007)
(0 -0.1 5.4e-05)
(-4.92445 4.9 8.70349)
(-4.84852 4.9 8.74602)
(-4.84852 4.9 8.74602)
(-4.77222 4.9 8.78788)
(8.23427 4.9 -5.67416)
(8.18458 4.9 -5.74561)
(3.88371 4.9 9.21509)
(3.96376 4.9 9.18094)
(3.96376 4.9 9.18094)
(4.0435 4.9 9.1461)
(4.12294 4.9 9.11056)
(4.20207 4.9 9.07434)
(4.20207 4.9 9.07434)
(4.28088 4.9 9.03743)
(5.42082 4.9 8.40331)
(5.49374 4.9 8.35582)
(5.49374 4.9 8.35582)
(5.56625 4.9 8.30769)
(5.63833 4.9 8.25894)
(5.70999 4.9 8.20956)
(5.70999 4.9 8.20956)
(5.78122 4.9 8.15956)
(9.73193 4.9 2.29994)
(9.75158 4.9 2.21516)
(9.75158 4.9 2.21516)
(9.77049 4.9 2.13022)
(9.82276 4.9 1.87444)
(9.8387 4.9 1.78889)
(9.98482 4.9 -0.550823)
(9.97964 4.9 -0.637693)
(-3.26071 4.9 9.45351)
(-3.17832 4.9 9.48152)
(-3.17832 4.9 9.48152)
(-3.09569 4.9 9.50882)
(-3.01282 4.9 9.53541)
(-2.92973 4.9 9.56126)
(-2.92973 4.9 9.56126)
(-2.84641 4.9 9.5864)
(-1.48837 4.9 9.88867)
(-1.40226 4.9 9.90125)
(-1.40226 4.9 9.90125)
(-1.31605 4.9 9.91308)
(0.767962 4.9 9.97052)
(0.854699 4.9 9.96346)
(0.854699 4.9 9.96346)
(0.941372 4.9 9.95565)
(1.1145 4.9 9.93775)
(1.20094 4.9 9.92768)
(1.20094 4.9 9.92768)
(1.28729 4.9 9.91685)
(2.81859 4.9 9.59461)
(2.90198 4.9 9.56972)
(2.98515 4.9 9.5441)
(3.06809 4.9 9.51777)
(3.06809 4.9 9.51777)
(3.1508 4.9 9.49071)
(3.23327 4.9 9.46293)
(3.3155 4.9 9.43443)
(3.3155 4.9 9.43443)
(3.39748 4.9 9.40522)
(3.47919 4.9 9.3753)
(3.56065 4.9 9.34467)
(3.56065 4.9 9.34467)
(3.64183 4.9 9.31333)
(4.35936 4.9 8.99983)
(4.43752 4.9 8.96155)
(4.43752 4.9 8.96155)
(4.51533 4.9 8.9226)
(4.59281 4.9 8.88297)
(4.66994 4.9 8.84266)
(4.66994 4.9 8.84266)
(4.74671 4.9 8.80169)
(4.82313 4.9 8.76005)
(4.89918 4.9 8.71774)
(4.89918 4.9 8.71774)
(4.97486 4.9 8.67478)
(5.19961 4.9 8.54195)
(5.27375 4.9 8.49638)
(5.27375 4.9 8.49638)
(5.34749 4.9 8.45017)
(5.85201 4.9 8.10894)
(5.92235 4.9 8.05771)
(5.92235 4.9 8.05771)
(5.99225 4.9 8.00586)
(6.06169 4.9 7.95341)
(6.13067 4.9 7.90036)
(6.13067 4.9 7.90036)
(6.19919 4.9 7.84671)
(8.01449 4.9 5.98069)
(8.06623 4.9 5.91071)
(8.26705 4.9 5.62641)
(8.3157 4.9 5.55425)
(8.3157 4.9 5.55425)
(8.36372 4.9 5.48167)
(9.78865 4.9 2.04511)
(9.80608 4.9 1.95985)
(9.80608 4.9 1.95985)
(9.82276 4.9 1.87444)
(9.91865 4.9 1.27295)
(9.92936 4.9 1.18659)
(8.37959 4.9 -5.45728)
(8.33178 4.9 -5.52999)
(8.33178 4.9 -5.52999)
(8.28334 4.9 -5.60229)
(7.59793 4.9 -6.50159)
(-4.69557 4.9 8.82908)
(-4.61856 4.9 8.8696)
(-4.61856 4.9 8.8696)
(-4.5412 4.9 8.90946)
(-1.22973 4.9 9.92415)
(-1.14332 4.9 9.93448)
(-1.14332 4.9 9.93448)
(-1.05682 4.9 9.94405)
(0.159539 4.9 9.99878)
(0.246545 4.9 9.99701)
(0.246545 4.9 9.99701)
(0.333533 4.9 9.99449)
(1.37354 4.9 9.90527)
(1.45968 4.9 9.89295)
(1.45968 4.9 9.89295)
(1.54572 4.9 9.87987)
(1.63164 4.9 9.86604)
(1.71743 4.9 9.85147)
(1.71743 4.9 9.85147)
(1.8031 4.9 9.83615)
(1.88863 4.9 9.82009)
(1.97401 4.9 9.80328)
(1.97401 4.9 9.80328)
(2.05925 4.9 9.78573)
(2.14433 4.9 9.76744)
(2.22925 4.9 9.74841)
(2.22925 4.9 9.74841)
(2.314 4.9 9.72864)
(2.65118 4.9 9.64221)
(2.73499 4.9 9.61878)
(2.73499 4.9 9.61878)
(2.81859 4.9 9.59461)
(8.11736 4.9 5.8403)
(8.16788 4.9 5.76943)
(8.16788 4.9 5.76943)
(8.21778 4.9 5.69813)
(8.41111 4.9 5.40868)
(8.45786 4.9 5.33528)
(8.45786 4.9 5.33528)
(8.50397 4.9 5.26147)
(9.8539 4.9 1.7032)
(9.86835 4.9 1.61738)
(9.86835 4.9 1.61738)
(9.88205 4.9 1.53144)
(9.93931 4.9 1.10014)
(9.9485 4.9 1.0136)
(9.9485 4.9 1.0136)
(9.95695 4.9 0.926986)
(9.96464 4.9 0.840302)
(9.97157 4.9 0.753553)
(9.97157 4.9 0.753553)
(9.97775 4.9 0.666749)
(9.99175 4.9 0.406058)
(9.99491 4.9 0.319091)
(9.99491 4.9 0.319091)
(9.99731 4.9 0.2321)
(9.99933 4.9 -0.115976)
(9.99794 4.9 -0.20299)
(9.99794 4.9 -0.20299)
(9.99579 4.9 -0.289988)
(9.99289 4.9 -0.376964)
(9.98923 4.9 -0.463911)
(9.98923 4.9 -0.463911)
(9.98482 4.9 -0.550823)
(9.79454 4.9 -2.0166)
(9.77662 4.9 -2.10176)
(9.32903 4.9 -3.60122)
(9.29734 4.9 -3.68227)
(9.29734 4.9 -3.68227)
(9.26494 4.9 -3.76304)
(8.78089 4.9 -4.78491)
(8.73892 4.9 -4.86114)
(8.73892 4.9 -4.86114)
(8.69629 4.9 -4.93701)
(8.65299 4.9 -5.0125)
(8.60904 4.9 -5.08761)
(8.60904 4.9 -5.08761)
(8.56444 4.9 -5.16234)
(8.51919 4.9 -5.23667)
(8.4733 4.9 -5.31061)
(8.4733 4.9 -5.31061)
(8.42676 4.9 -5.38415)
(8.13427 4.9 -5.81661)
(8.08334 4.9 -5.88718)
(8.08334 4.9 -5.88718)
(8.03181 4.9 -5.9573)
(-4.30708 4.9 9.02497)
(-4.22837 4.9 9.06211)
(-4.14935 4.9 9.09856)
(-4.07002 4.9 9.13433)
(-4.07002 4.9 9.13433)
(-3.99037 4.9 9.1694)
(-3.66884 4.9 9.30272)
(-3.58774 4.9 9.3343)
(-3.58774 4.9 9.3343)
(-3.50638 4.9 9.36517)
(-2.76288 4.9 9.6108)
(-2.67914 4.9 9.63448)
(-2.67914 4.9 9.63448)
(-2.59519 4.9 9.65743)
(-0.796881 4.9 9.96825)
(-0.710104 4.9 9.97481)
(-0.101527 4.9 9.99954)
(-0.014504 4.9 10)
(-0.014504 4.9 10)
(0.07252 4.9 9.99979)
(0.420496 4.9 9.99121)
(0.507426 4.9 9.98717)
(0.507426 4.9 9.98717)
(0.594318 4.9 9.98238)
(2.39857 4.9 9.70814)
(2.48297 4.9 9.68689)
(2.48297 4.9 9.68689)
(2.56717 4.9 9.66492)
(8.54943 4.9 5.18727)
(8.59425 4.9 5.11267)
(8.59425 4.9 5.11267)
(8.63842 4.9 5.03769)
(9.895 4.9 1.44539)
(9.9072 4.9 1.35922)
(9.9072 4.9 1.35922)
(9.91865 4.9 1.27295)
(9.99895 4.9 0.14509)
(9.99983 4.9 0.05807)
(9.99983 4.9 0.05807)
(9.99996 4.9 -0.028954)
(9.97372 4.9 -0.724516)
(9.96703 4.9 -0.811284)
(9.96703 4.9 -0.811284)
(9.95959 4.9 -0.89799)
(9.82816 4.9 -1.84583)
(9.81172 4.9 -1.93128)
(9.81172 4.9 -1.93128)
(9.79454 4.9 -2.0166)
(9.75796 4.9 -2.18676)
(9.73856 4.9 -2.27159)
(9.73856 4.9 -2.27159)
(9.71843 4.9 -2.35625)
(9.23184 4.9 -3.84352)
(9.19804 4.9 -3.92372)
(9.19804 4.9 -3.92372)
(9.16355 4.9 -4.00361)
(9.12836 4.9 -4.08321)
(9.09248 4.9 -4.16249)
(9.09248 4.9 -4.16249)
(9.05591 4.9 -4.24146)
(8.90281 4.9 -4.55406)
(8.86284 4.9 -4.63136)
(8.86284 4.9 -4.63136)
(8.8222 4.9 -4.70832)
(7.97966 4.9 -6.02697)
(7.92691 4.9 -6.09619)
(7.92691 4.9 -6.09619)
(7.87355 4.9 -6.16494)
(-4.46349 4.9 8.94864)
(-4.38545 4.9 8.98715)
(-4.38545 4.9 8.98715)
(-4.30708 4.9 9.02497)
(-3.91043 4.9 9.20378)
(-3.83018 4.9 9.23746)
(-3.83018 4.9 9.23746)
(-3.74965 4.9 9.27044)
(-2.51105 4.9 9.67965)
(-2.42672 4.9 9.70114)
(-2.42672 4.9 9.70114)
(-2.34221 4.9 9.72189)
(-0.970247 4.9 9.95288)
(-0.883597 4.9 9.96094)
(-0.883597 4.9 9.96094)
(-0.796881 4.9 9.96825)
(-0.623273 4.9 9.98061)
(-0.536395 4.9 9.98566)
(-0.536395 4.9 9.98566)
(-0.449476 4.9 9.98995)
(6.26724 4.9 7.79246)
(6.33482 4.9 7.73763)
(6.33482 4.9 7.73763)
(6.40191 4.9 7.68221)
(8.68193 4.9 4.96232)
(8.72478 4.9 4.88658)
(8.72478 4.9 4.88658)
(8.76698 4.9 4.81047)
(9.1519 4.9 4.03029)
(9.18662 4.9 3.95049)
(9.18662 4.9 3.95049)
(9.22065 4.9 3.8704)
(9.34977 4.9 3.54715)
(9.38028 4.9 3.46565)
(9.38028 4.9 3.46565)
(9.41009 4.9 3.38388)
(9.52215 4.9 3.05434)
(9.54837 4.9 2.97136)
(9.54837 4.9 2.97136)
(9.57387 4.9 2.88815)
(9.66858 4.9 2.5532)
(9.69043 4.9 2.46897)
(9.69043 4.9 2.46897)
(9.71155 4.9 2.38454)
(9.9514 4.9 -0.984628)
(9.94246 4.9 -1.07119)
(9.94246 4.9 -1.07119)
(9.93276 4.9 -1.15767)
(9.69755 4.9 -2.44074)
(9.67595 4.9 -2.52504)
(9.67595 4.9 -2.52504)
(9.65361 4.9 -2.60914)
(9.41986 4.9 -3.35647)
(9.39029 4.9 -3.43831)
(9.39029 4.9 -3.43831)
(9.36002 4.9 -3.5199)
(-2.25752 4.9 9.7419)
(-2.17266 4.9 9.76118)
(-2.17266 4.9 9.76118)
(-2.08763 4.9 9.77972)
(-2.00244 4.9 9.79751)
(-1.91711 4.9 9.81457)
(-1.91711 4.9 9.81457)
(-1.83162 4.9 9.83088)
(-1.746 4.9 9.84645)
(-1.66025 4.9 9.86127)
(-1.66025 4.9 9.86127)
(-1.57437 4.9 9.87534)
(-0.362524 4.9 9.99348)
(-0.275543 4.9 9.99626)
(-0.275543 4.9 9.99626)
(-0.188542 4.9 9.99828)
(7.34741 4.9 6.78353)
(7.40616 4.9 6.71934)
(7.40616 4.9 6.71934)
(7.46436 4.9 6.65463)
(7.52198 4.9 6.58942)
(7.57904 4.9 6.52371)
(7.57904 4.9 6.52371)
(7.63553 4.9 6.45751)
(7.90919 4.9 6.11927)
(7.96214 4.9 6.0502)
(7.96214 4.9 6.0502)
(8.01449 4.9 5.98069)
(8.80851 4.9 4.734)
(8.84937 4.9 4.65716)
(8.84937 4.9 4.65716)
(8.88956 4.9 4.57998)
(8.92908 4.9 4.50244)
(8.96792 4.9 4.42457)
(8.96792 4.9 4.42457)
(9.00609 4.9 4.34636)
(9.04357 4.9 4.26782)
(9.08037 4.9 4.18896)
(9.08037 4.9 4.18896)
(9.11648 4.9 4.10978)
(9.25399 4.9 3.79001)
(9.28662 4.9 3.70933)
(9.28662 4.9 3.70933)
(9.31854 4.9 3.62838)
(9.43918 4.9 3.30187)
(9.46755 4.9 3.2196)
(9.46755 4.9 3.2196)
(9.49521 4.9 3.13709)
(9.59864 4.9 2.80473)
(9.62268 4.9 2.72109)
(9.62268 4.9 2.72109)
(9.64599 4.9 2.63725)
(9.92231 4.9 -1.24407)
(9.9111 4.9 -1.33037)
(9.9111 4.9 -1.33037)
(9.89915 4.9 -1.41657)
(9.88645 4.9 -1.50266)
(9.873 4.9 -1.58864)
(9.873 4.9 -1.58864)
(9.8588 4.9 -1.6745)
(9.63053 4.9 -2.69306)
(9.60673 4.9 -2.77676)
(9.60673 4.9 -2.77676)
(9.5822 4.9 -2.86026)
(9.01866 4.9 -4.32011)
(8.98072 4.9 -4.39843)
(8.98072 4.9 -4.39843)
(8.9421 4.9 -4.47641)
(7.81961 4.9 -6.23322)
(7.76507 4.9 -6.30104)
(7.70994 4.9 -6.36837)
(9.55695 4.9 -2.94354)
(9.53097 4.9 -3.02659)
(9.53097 4.9 -3.02659)
(9.50427 4.9 -3.10942)
(6.60027 4.9 7.51247)
(6.6654 4.9 7.45475)
(6.6654 4.9 7.45475)
(6.73002 4.9 7.39646)
(7.69143 4.9 6.39082)
(7.74676 4.9 6.32364)
(7.74676 4.9 6.32364)
(7.80149 4.9 6.25599)
(6.79413 4.9 7.33762)
(6.85773 4.9 7.27821)
(6.85773 4.9 7.27821)
(6.9208 4.9 7.21826)
(6.98336 4.9 7.15776)
(7.04538 4.9 7.09672)
(7.04538 4.9 7.09672)
(7.10687 4.9 7.03514)
(7.16783 4.9 6.97302)
(7.22823 4.9 6.91038)
(7.22823 4.9 6.91038)
(7.2881 4.9 6.84722)
(3.72274 4.9 9.28128)
(3.64183 4.9 9.31333)
(3.64183 4.9 9.31333)
(3.56065 4.9 9.34467)
(3.56065 4.9 9.34467)
(3.47919 4.9 9.3753)
(3.47919 4.9 9.3753)
(3.39748 4.9 9.40522)
(3.39748 4.9 9.40522)
(3.3155 4.9 9.43443)
(3.3155 4.9 9.43443)
(3.23327 4.9 9.46293)
(3.23327 4.9 9.46293)
(3.1508 4.9 9.49071)
(3.1508 4.9 9.49071)
(3.06809 4.9 9.51777)
(3.06809 4.9 9.51777)
(2.98515 4.9 9.5441)
(2.98515 4.9 9.5441)
(2.90198 4.9 9.56972)
(2.90198 4.9 9.56972)
(2.81859 4.9 9.59461)
(2.81859 4.9 9.59461)
(2.73499 4.9 9.61878)
(2.73499 4.9 9.61878)
(2.65118 4.9 9.64221)
(2.65118 4.9 9.64221)
(2.56717 4.9 9.66492)
(2.56717 4.9 9.66492)
(2.48297 4.9 9.68689)
(2.48297 4.9 9.68689)
(2.39857 4.9 9.70814)
(2.39857 4.9 9.70814)
(2.314 4.9 9.72864)
(2.314 4.9 9.72864)
(2.22925 4.9 9.74841)
(2.22925 4.9 9.74841)
(2.14433 4.9 9.76744)
(2.14433 4.9 9.76744)
(2.05925 4.9 9.78573)
(2.05925 4.9 9.78573)
(1.97401 4.9 9.80328)
(1.97401 4.9 9.80328)
(1.88863 4.9 9.82009)
(1.88863 4.9 9.82009)
(1.8031 4.9 9.83615)
(1.8031 4.9 9.83615)
(1.71743 4.9 9.85147)
(1.71743 4.9 9.85147)
(1.63164 4.9 9.86604)
(1.63164 4.9 9.86604)
(1.54572 4.9 9.87987)
(1.54572 4.9 9.87987)
(1.45968 4.9 9.89295)
(1.45968 4.9 9.89295)
(1.37354 4.9 9.90527)
(1.37354 4.9 9.90527)
(1.28729 4.9 9.91685)
(1.28729 4.9 9.91685)
(1.20094 4.9 9.92768)
(1.20094 4.9 9.92768)
(1.1145 4.9 9.93775)
(1.1145 4.9 9.93775)
(1.02797 4.9 9.94708)
(1.02797 4.9 9.94708)
(0.941372 4.9 9.95565)
(0.941372 4.9 9.95565)
(0.854699 4.9 9.96346)
(0.854699 4.9 9.96346)
(0.767962 4.9 9.97052)
(0.767962 4.9 9.97052)
(0.681166 4.9 9.97683)
(0.681166 4.9 9.97683)
(0.594318 4.9 9.98238)
(0.594318 4.9 9.98238)
(0.507426 4.9 9.98717)
(0.507426 4.9 9.98717)
(0.420496 4.9 9.99121)
(0.420496 4.9 9.99121)
(0.333533 4.9 9.99449)
(0.333533 4.9 9.99449)
(0.246545 4.9 9.99701)
(0.246545 4.9 9.99701)
(0.159539 4.9 9.99878)
(0.159539 4.9 9.99878)
(0.07252 4.9 9.99979)
(0.07252 4.9 9.99979)
(-0.014504 4.9 10)
(-0.014504 4.9 10)
(-0.101527 4.9 9.99954)
(-0.101527 4.9 9.99954)
(-0.188542 4.9 9.99828)
(-0.188542 4.9 9.99828)
(-0.275543 4.9 9.99626)
(-0.275543 4.9 9.99626)
(-0.362524 4.9 9.99348)
(-0.362524 4.9 9.99348)
(-0.449476 4.9 9.98995)
(-0.449476 4.9 9.98995)
(-0.536395 4.9 9.98566)
(-0.536395 4.9 9.98566)
(-0.623273 4.9 9.98061)
(-0.623273 4.9 9.98061)